data_image0
_chemical_formula_structural       O192Si95Mo
_chemical_formula_sum              "O192 Si95 Mo1"
_cell_length_a       20.35063354355982
_cell_length_b       19.845848514344205
_cell_length_c       13.367582146701995
_cell_angle_alpha    89.9520960299612
_cell_angle_beta     90.11637315575955
_cell_angle_gamma    89.94093879759312

_space_group_name_H-M_alt    "P 1"
_space_group_IT_number       1

loop_
  _space_group_symop_operation_xyz
  'x, y, z'

loop_
  _atom_site_type_symbol
  _atom_site_label
  _atom_site_symmetry_multiplicity
  _atom_site_fract_x
  _atom_site_fract_y
  _atom_site_fract_z
  _atom_site_occupancy
  O   O1        1.0  0.5033136066535295  0.0736058630760229  0.7059320443456762  1.0000
  O   O2        1.0  0.4967017888204485  0.9271456332500819  0.2910172340198096  1.0000
  O   O3        1.0  0.9976070357898474  0.9268323102352014  0.2085034162042213  1.0000
  O   O4        1.0  0.0031562658165494  0.0693099110408564  0.7873310770861419  1.0000
  O   O5        1.0  0.4957765882086225  0.5728597266889333  0.2979770504684605  1.0000
  O   O6        1.0  0.49213163635952967  0.4189379536272422  0.7383455071252629  1.0000
  O   O7        1.0  0.9965956784442369  0.430571305795484  0.79888575164386  1.0000
  O   O8        1.0  0.9939242543370855  0.5747764210572922  0.211514846476469  1.0000
  O   O9        1.0  0.3886228684064046  0.0655035415086976  0.7970900935599947  1.0000
  O   O10       1.0  0.6120518661827793  0.9356840955565361  0.20228944821907296  1.0000
  O   O11       1.0  0.1131774355616444  0.9325467889332067  0.296507657146689  1.0000
  O   O12       1.0  0.8867400395018701  0.06961542807339141  0.7015524494346498  1.0000
  O   O13       1.0  0.6080667631916621  0.5677698623115015  0.20033024742618116  1.0000
  O   O14       1.0  0.3688482550670125  0.42450026337463653  0.7940410991470428  1.0000
  O   O15       1.0  0.8816937386974372  0.4284205573366505  0.7078185257267996  1.0000
  O   O16       1.0  0.10991886971384049  0.5640035002265633  0.2960297093607092  1.0000
  O   O17       1.0  0.4002927086202748  0.1376756722138354  0.6318968599096939  1.0000
  O   O18       1.0  0.5991027360609102  0.8631506002281623  0.3673663644803806  1.0000
  O   O19       1.0  0.0987952293989266  0.8610640015345228  0.1316289106564102  1.0000
  O   O20       1.0  0.9055798943459337  0.13885878788773362  0.867031329266675  1.0000
  O   O21       1.0  0.5990481575216792  0.6393718784920057  0.36592780160609245  1.0000
  O   O22       1.0  0.40111084636477834  0.35838270915816395  0.6304341567802441  1.0000
  O   O23       1.0  0.9003520161940425  0.35744842636590546  0.8724857890790875  1.0000
  O   O24       1.0  0.096515458475252  0.6363226251774031  0.1311473849200862  1.0000
  O   O25       1.0  0.4070220708463301  0.003285872687689  0.6223793778915658  1.0000
  O   O26       1.0  0.5921948028888736  0.9973471493798561  0.3763801084407069  1.0000
  O   O27       1.0  0.0943311112508587  0.9956016004867566  0.1225843842638519  1.0000
  O   O28       1.0  0.9047059922073621  0.0044213446577821  0.8745076581315494  1.0000
  O   O29       1.0  0.5963784074551732  0.5049489714886336  0.3751108134605953  1.0000
  O   O30       1.0  0.4084717065409986  0.4932152120428173  0.6317546517282786  1.0000
  O   O31       1.0  0.8936409120071054  0.4916721754462974  0.8820616196787563  1.0000
  O   O32       1.0  0.0847591386590572  0.502555174587909  0.12055452338630779  1.0000
  O   O33       1.0  0.3224019221037012  0.03806519904225201  0.962914513438548  1.0000
  O   O34       1.0  0.6772981255150572  0.962247654149831  0.0360426262765357  1.0000
  O   O35       1.0  0.1770109045803147  0.9619882145380472  0.4636045303204011  1.0000
  O   O36       1.0  0.8236322407307887  0.0397165356779871  0.5337628356696851  1.0000
  O   O37       1.0  0.6744573386520272  0.541715674785694  0.0357530414162002  1.0000
  O   O38       1.0  0.3165258122259441  0.4636943894435329  0.9653237908192477  1.0000
  O   O39       1.0  0.8238403475346111  0.463322501538749  0.5367701934012906  1.0000
  O   O40       1.0  0.1785086824616701  0.539803700667445  0.461505041342105  1.0000
  O   O41       1.0  0.3191433802769869  0.9538221409623205  0.8046811162999058  1.0000
  O   O42       1.0  0.683799271299386  0.04681355475557151  0.1917147347132666  1.0000
  O   O43       1.0  0.1790596151368223  0.0464164765375688  0.30697214811380513  1.0000
  O   O44       1.0  0.8230541617866997  0.9551665544820211  0.6909119619985228  1.0000
  O   O45       1.0  0.6750127831067918  0.4543112001097645  0.1897884656596277  1.0000
  O   O46       1.0  0.3168529168254248  0.5456114647923056  0.8055085024554199  1.0000
  O   O47       1.0  0.8244273996728811  0.5466835638778269  0.6950098444814048  1.0000
  O   O48       1.0  0.1817254745485294  0.4541545321745863  0.3051604214447908  1.0000
  O   O49       1.0  0.2573126530484676  0.07055607293239641  0.7997248322615969  1.0000
  O   O50       1.0  0.7430692956818452  0.9289500096169083  0.19930090542691278  1.0000
  O   O51       1.0  0.2444535954500351  0.9313320369187468  0.3016259705414525  1.0000
  O   O52       1.0  0.755214709341486  0.06881843192060731  0.6951022679160508  1.0000
  O   O53       1.0  0.7391430423943165  0.5694566665753432  0.2019965412728612  1.0000
  O   O54       1.0  0.2399086780175868  0.4374625478328457  0.8108181323811294  1.0000
  O   O55       1.0  0.7504892147977171  0.43656196999818797  0.6931123400493387  1.0000
  O   O56       1.0  0.24040399664736892  0.572924181821016  0.2968859538114677  1.0000
  O   O57       1.0  0.2912475139150376  0.1258307329865728  0.10421698384261789  1.0000
  O   O58       1.0  0.7100732513155025  0.8763873464085864  0.8944627155898294  1.0000
  O   O59       1.0  0.2067885998453806  0.8755070423007395  0.6060901244116552  1.0000
  O   O60       1.0  0.7916079025898564  0.12471956443919721  0.39003974625470283  1.0000
  O   O61       1.0  0.7009247712044802  0.6269261018257704  0.8906338394740031  1.0000
  O   O62       1.0  0.2902608616352296  0.3754786651233482  0.1077747935931131  1.0000
  O   O63       1.0  0.7951067643732029  0.37470225125880857  0.39672157176477946  1.0000
  O   O64       1.0  0.21308132952154987  0.6260153415978355  0.6034186687217281  1.0000
  O   O65       1.0  0.1992241393528007  0.04417889179384911  0.028249219614483595  1.0000
  O   O66       1.0  0.8009772623053033  0.957778255498745  0.973362098964413  1.0000
  O   O67       1.0  0.2994733887591169  0.9572298033094463  0.5319585450035706  1.0000
  O   O68       1.0  0.7010595957917335  0.0414038941336664  0.465500822418823  1.0000
  O   O69       1.0  0.7979566693584528  0.5559055490904782  0.9771743084875602  1.0000
  O   O70       1.0  0.19726658630743368  0.4605876555886974  0.0438232797171358  1.0000
  O   O71       1.0  0.7013861001498765  0.4565756771401832  0.4690146799798456  1.0000
  O   O72       1.0  0.3008016392631315  0.5370085915438846  0.5353346571293017  1.0000
  O   O73       1.0  0.2944339159112755  0.9958867898364484  0.1451222450564942  1.0000
  O   O74       1.0  0.706959437663394  0.006273047694734201  0.8549906852753104  1.0000
  O   O75       1.0  0.2033588939455275  0.005700058071751101  0.6457581592444006  1.0000
  O   O76       1.0  0.7980833094945002  0.9940150768796044  0.3524106244455745  1.0000
  O   O77       1.0  0.7110872871515979  0.4959031106013758  0.8590599254217656  1.0000
  O   O78       1.0  0.2989781630210907  0.5052661529724283  0.15006430172127558  1.0000
  O   O79       1.0  0.7965010806854708  0.5041175234203976  0.3528206797607616  1.0000
  O   O80       1.0  0.19871626983861237  0.49688049015280283  0.6445586224305865  1.0000
  O   O81       1.0  0.1077613037294775  0.12807829959309014  0.0979104957311407  1.0000
  O   O82       1.0  0.8915058146595038  0.8728413091184155  0.9034615424080683  1.0000
  O   O83       1.0  0.3913240821670936  0.8716031900014858  0.5958672034936447  1.0000
  O   O84       1.0  0.6105963583267705  0.1283504968569794  0.40047585360425864  1.0000
  O   O85       1.0  0.8955289314342046  0.626305880887529  0.8989065277110047  1.0000
  O   O86       1.0  0.10537971701503739  0.3717677548816044  0.09794531289170928  1.0000
  O   O87       1.0  0.6166450720206144  0.3718668197869335  0.386075687817081  1.0000
  O   O88       1.0  0.3914300263005707  0.6243681806298123  0.5999119403569249  1.0000
  O   O89       1.0  0.0806232970265735  0.04930015835159451  0.9444086596422128  1.0000
  O   O90       1.0  0.919936564711405  0.9536652401904653  0.05468167397288911  1.0000
  O   O91       1.0  0.4157424127237099  0.9512957384972097  0.4422524220264271  1.0000
  O   O92       1.0  0.5852478561043258  0.04967710381659251  0.5559635200136402  1.0000
  O   O93       1.0  0.9184208484341038  0.5487196391379842  0.0545805435271699  1.0000
  O   O94       1.0  0.086862586813472  0.4488644004081064  0.9397314782292508  1.0000
  O   O95       1.0  0.5804664510405813  0.44039299733386783  0.5445439814925125  1.0000
  O   O96       1.0  0.4189434007115466  0.5417568417111034  0.4509080105901682  1.0000
  O   O97       1.0  0.1298421747270747  0.0806249569725693  0.766138960316654  1.0000
  O   O98       1.0  0.8706359413810705  0.9179391497040947  0.23159537203089958  1.0000
  O   O99       1.0  0.37063301953392896  0.9195420577644401  0.2609017306717732  1.0000
  O   O100      1.0  0.6291704730872494  0.0792712056120097  0.7381867582347821  1.0000
  O   O101      1.0  0.8668989345427367  0.5802765103915323  0.2309278715323465  1.0000
  O   O102      1.0  0.1191927587909565  0.41806233037515583  0.7506544154231327  1.0000
  O   O103      1.0  0.6326872183114071  0.40752245559710487  0.766395811774699  1.0000
  O   O104      1.0  0.3689150589887424  0.5797369791586561  0.2758039618254652  1.0000
  O   O105      1.0  0.0787007918431075  0.9600826679569996  0.7953074140512717  1.0000
  O   O106      1.0  0.9242859455094793  0.0379801622953943  0.21044349820922992  1.0000
  O   O107      1.0  0.4242480820587167  0.03882202395363981  0.2913135375454438  1.0000
  O   O108      1.0  0.573357659880686  0.9606760431425734  0.7050985425778128  1.0000
  O   O109      1.0  0.9239363461114887  0.4614150497895781  0.2058947451485137  1.0000
  O   O110      1.0  0.0729210687583965  0.5389045107257906  0.7937230917093882  1.0000
  O   O111      1.0  0.58775096384283  0.548364082319577  0.7161541085491083  1.0000
  O   O112      1.0  0.42516033880133636  0.4600861232757486  0.2932485282518435  1.0000
  O   O113      1.0  0.21334495707808707  0.1400823269224145  0.6476990132166918  1.0000
  O   O114      1.0  0.7870970537752003  0.8596177890274419  0.35149384004937373  1.0000
  O   O115      1.0  0.2834548158416902  0.8616215087924419  0.1457984462148181  1.0000
  O   O116      1.0  0.7171296330563167  0.1401871743196768  0.8496777469564025  1.0000
  O   O117      1.0  0.7847089158889132  0.6385157100662376  0.3532902304030414  1.0000
  O   O118      1.0  0.2173773946837613  0.3639829278468845  0.6485515220388006  1.0000
  O   O119      1.0  0.7393085818594943  0.3644151401524481  0.8576208748170292  1.0000
  O   O120      1.0  0.2914623680267978  0.6402170794702259  0.1482067080113533  1.0000
  O   O121      1.0  0.49759897480118714  0.8514662856874619  0.7113703359708868  1.0000
  O   O122      1.0  0.5020943042693774  0.1457721091906838  0.2888368726223813  1.0000
  O   O123      1.0  0.0022537462000918  0.1446944609381778  0.2152516924623168  1.0000
  O   O124      1.0  0.9963598852382395  0.856512244081588  0.7844167600281964  1.0000
  O   O125      1.0  0.5037211285116177  0.3541069200139997  0.28539488516176614  1.0000
  O   O126      1.0  0.49834771724313853  0.6471875304708459  0.7135087865508652  1.0000
  O   O127      1.0  0.999986895507151  0.6492363556716464  0.7832420707528185  1.0000
  O   O128      1.0  0.0034815243248932995  0.35568592119201947  0.2244319414907448  1.0000
  O   O129      1.0  0.3803802930741705  0.8360102466553259  0.7880049266397731  1.0000
  O   O130      1.0  0.6173379052764975  0.1608553888326904  0.20584126044983178  1.0000
  O   O131      1.0  0.11974369867103979  0.1650009612425453  0.2890011726935058  1.0000
  O   O132      1.0  0.8787384642994039  0.8351506518220863  0.7124532366127627  1.0000
  O   O133      1.0  0.6171994950765569  0.3337953157743877  0.19683800648563599  1.0000
  O   O134      1.0  0.3818839396482093  0.6614711580574929  0.7907645345477642  1.0000
  O   O135      1.0  0.8816670052877114  0.6663010193506457  0.709617582220392  1.0000
  O   O136      1.0  0.1223854956098571  0.3349849916745981  0.2888896382853642  1.0000
  O   O137      1.0  0.42241385442778767  0.7485908337531435  0.6518125527722317  1.0000
  O   O138      1.0  0.5771667773797641  0.24967589331806866  0.3409430558957512  1.0000
  O   O139      1.0  0.0719843920219602  0.2503461794024163  0.154575938539937  1.0000
  O   O140      1.0  0.9264680735148634  0.7507649574341777  0.8484614819678666  1.0000
  O   O141      1.0  0.3162027649770021  0.8671651864007693  0.9539712881959127  1.0000
  O   O142      1.0  0.6854564256945229  0.13450072238567562  0.04143583457781241  1.0000
  O   O143      1.0  0.1827564027897826  0.1347473822078494  0.4552502898555786  1.0000
  O   O144      1.0  0.8178453140925324  0.8668717991829432  0.5435276914049205  1.0000
  O   O145      1.0  0.689642410109666  0.3686967777481649  0.0413387745791489  1.0000
  O   O146      1.0  0.3165662253907813  0.6324811830857641  0.9553199507219134  1.0000
  O   O147      1.0  0.8165944601183406  0.6323090351874194  0.545145045047733  1.0000
  O   O148      1.0  0.1837554422150537  0.3687433531989162  0.4565148562674078  1.0000
  O   O149      1.0  0.2499087078617552  0.8412878551483134  0.7876709256408976  1.0000
  O   O150      1.0  0.7481197732990821  0.16203694422816592  0.2096441183497304  1.0000
  O   O151      1.0  0.2501321605215412  0.1571137927559627  0.2885756041608425  1.0000
  O   O152      1.0  0.7484858985889897  0.8470066965296897  0.707956256349366  1.0000
  O   O153      1.0  0.746681608925342  0.3443369270002473  0.21697877264131452  1.0000
  O   O154      1.0  0.2515552507269984  0.6607341861961049  0.7882187838964375  1.0000
  O   O155      1.0  0.7515930845416786  0.6570812593777374  0.7126286878394312  1.0000
  O   O156      1.0  0.2522654361177348  0.34236753736642633  0.29246812025358676  1.0000
  O   O157      1.0  0.2962575431378225  0.7503777802335067  0.042117491124284694  1.0000
  O   O158      1.0  0.7086106609624887  0.25160979805783634  0.9526067173095356  1.0000
  O   O159      1.0  0.2024942604163039  0.25166752430661293  0.5464028906264337  1.0000
  O   O160      1.0  0.7965884792460338  0.7493587236057043  0.4573713243570531  1.0000
  O   O161      1.0  0.1955971620082066  0.8329199653784363  0.0052264765962349  1.0000
  O   O162      1.0  0.8070077234804499  0.1665893895353167  0.9895620580181823  1.0000
  O   O163      1.0  0.3025202228141155  0.16824602066118452  0.5087528278162697  1.0000
  O   O164      1.0  0.6971992316355162  0.8337378378131506  0.49035579826166065  1.0000
  O   O165      1.0  0.8108053648682902  0.32602234111418743  0.0111340705908466  1.0000
  O   O166      1.0  0.1971724515221025  0.6648098169464286  0.013834437530083898  1.0000
  O   O167      1.0  0.6960198509438543  0.666786793191969  0.4928620294592703  1.0000
  O   O168      1.0  0.3036203358369836  0.3317842102835759  0.5067699202967202  1.0000
  O   O169      1.0  0.0948227281570461  0.7486797844142737  0.0260582520299509  1.0000
  O   O170      1.0  0.9131723569779252  0.24671376328421812  0.9812018665565111  1.0000
  O   O171      1.0  0.40653613817516054  0.24835046807388653  0.5209455099596919  1.0000
  O   O172      1.0  0.5946601598492958  0.7509703126983209  0.47313240137679874  1.0000
  O   O173      1.0  0.0788909409881134  0.8667806670214349  0.9362908308546011  1.0000
  O   O174      1.0  0.9204471217532441  0.12559407199262074  0.0629390120961679  1.0000
  O   O175      1.0  0.41647571950352186  0.1283054569840923  0.4359801801412566  1.0000
  O   O176      1.0  0.5824463914205622  0.8689836223481586  0.5639591102512069  1.0000
  O   O177      1.0  0.9282773254336508  0.36738480249404465  0.0652832985383615  1.0000
  O   O178      1.0  0.0835387233700018  0.631166949061614  0.9338826211207654  1.0000
  O   O179      1.0  0.5792720729737002  0.632236839614871  0.5611835182130863  1.0000
  O   O180      1.0  0.4191274783993155  0.3676889510703416  0.4348210616085909  1.0000
  O   O181      1.0  0.12236835777421809  0.838650647882129  0.7510684890576715  1.0000
  O   O182      1.0  0.875870395145728  0.1596916707303528  0.2450974173521481  1.0000
  O   O183      1.0  0.3768424308280089  0.15967309890927534  0.24929062089554258  1.0000
  O   O184      1.0  0.6229635340269222  0.8415727790115486  0.7523024599556043  1.0000
  O   O185      1.0  0.875443481925366  0.3411803512976407  0.24534884767268927  1.0000
  O   O186      1.0  0.1253773705836922  0.6564151658928151  0.7464882544953967  1.0000
  O   O187      1.0  0.6241773532402431  0.6738685686317305  0.7403419192335624  1.0000
  O   O188      1.0  0.3783148814689558  0.33951475138250253  0.2481146110741549  1.0000
  O   O189      1.0  0.1998601358071722  0.7502027766964162  0.6634917437066516  1.0000
  O   O190      1.0  0.8007470812035147  0.2506028600554623  0.3333862762843038  1.0000
  O   O191      1.0  0.2985051212847873  0.25021334859896194  0.1664620002803655  1.0000
  O   O192      1.0  0.7062403391901446  0.7530027801276182  0.8333102484893725  1.0000
  Si  Si1       1.0  0.4247146629396805  0.06958189381523891  0.688562626930276  1.0000
  Si  Si2       1.0  0.5751699695638919  0.9310814506560372  0.310048652228373  1.0000
  Si  Si3       1.0  0.0759962981161425  0.9294369736371916  0.18867786110532017  1.0000
  Si  Si4       1.0  0.9249273145770346  0.06995811704585882  0.8086369856119315  1.0000
  Si  Si5       1.0  0.5747903857322149  0.5708353998369037  0.31082041400682753  1.0000
  Si  Si6       1.0  0.4168496196320848  0.4243533838051464  0.6975084965962929  1.0000
  Si  Si7       1.0  0.9182239945528969  0.4276902615278792  0.8163112043981484  1.0000
  Si  Si8       1.0  0.0719027738206361  0.5690175470235376  0.1889771724358441  1.0000
  Si  Si9       1.0  0.321936039404699  0.031940784551498305  0.8419272740713979  1.0000
  Si  Si10      1.0  0.6789503108460884  0.9683442455224698  0.1569050360033364  1.0000
  Si  Si11      1.0  0.178481122669279  0.9679844019265513  0.34277191902391013  1.0000
  Si  Si12      1.0  0.8220534652464249  0.0334305755848977  0.6546099460031085  1.0000
  Si  Si13      1.0  0.6744464295939305  0.5332093184839548  0.1561721809134007  1.0000
  Si  Si14      1.0  0.3104744778786853  0.46811197487058004  0.8448363745404249  1.0000
  Si  Si15      1.0  0.8202368252537358  0.4686910026774817  0.6576393221681168  1.0000
  Si  Si16      1.0  0.1776199527885892  0.5325743396755377  0.3408114074345451  1.0000
  Si  Si17      1.0  0.2763313712795737  0.051139477587348915  0.0602075102417646  1.0000
  Si  Si18      1.0  0.7242795024173722  0.9506829256466438  0.9395304071335129  1.0000
  Si  Si19      1.0  0.222274606311799  0.9500088124899825  0.5622509028723518  1.0000
  Si  Si20      1.0  0.7780872883864663  0.05006195164294211  0.43492642555636  1.0000
  Si  Si21      1.0  0.7216187017177125  0.5552086109546951  0.9400045276924884  1.0000
  Si  Si22      1.0  0.2750792881463662  0.45102785590809363  0.0672739800796616  1.0000
  Si  Si23      1.0  0.7786223801720643  0.44954006026796317  0.4385697716980119  1.0000
  Si  Si24      1.0  0.22331198892757023  0.5501177780337879  0.5609618522641112  1.0000
  Si  Si25      1.0  0.1209666468688964  0.0543261045080698  0.048646109814719896  1.0000
  Si  Si26      1.0  0.8789119918666527  0.9471022755631746  0.9512766002946001  1.0000
  Si  Si27      1.0  0.3779310829404769  0.9458821404967991  0.5483154645463694  1.0000
  Si  Si28      1.0  0.6228216577499462  0.054281353093649  0.44961581459793437  1.0000
  Si  Si29      1.0  0.8761333995953634  0.5556432768616317  0.9523940034975712  1.0000
  Si  Si30      1.0  0.118939359867858  0.44585865083946224  0.05029484913930919  1.0000
  Si  Si31      1.0  0.6243303872844095  0.4436509116702514  0.4430145834726281  1.0000
  Si  Si32      1.0  0.3790353021225951  0.5492798432545014  0.5547988168402778  1.0000
  Si  Si33      1.0  0.073080117093491  0.0393506453047566  0.8243977675035309  1.0000
  Si  Si34      1.0  0.9279777772913935  0.9596330227841483  0.1752424154199705  1.0000
  Si  Si35      1.0  0.4267704978808216  0.9597363983642337  0.32268564265428007  1.0000
  Si  Si36      1.0  0.5730238060311339  0.04007240259391931  0.6750668749360603  1.0000
  Si  Si37      1.0  0.9256662784467402  0.5406151301982545  0.1749444768113284  1.0000
  Si  Si38      1.0  0.06901826386578089  0.45953612849698716  0.8225418047886  1.0000
  Si  Si39      1.0  0.4271728301263822  0.5379952841495051  0.33032982414939455  1.0000
  Si  Si40      1.0  0.2010153390005795  0.07319162529804392  0.7138110280314242  1.0000
  Si  Si41      1.0  0.7997342715644217  0.9262066488240069  0.2847418807647147  1.0000
  Si  Si42      1.0  0.298226150277508  0.9279385606010764  0.2122654942004889  1.0000
  Si  Si43      1.0  0.7021435124816905  0.07291313869471372  0.7853679022835438  1.0000
  Si  Si44      1.0  0.7966642855204834  0.5721912696594876  0.2857569882122345  1.0000
  Si  Si45      1.0  0.1938678596398922  0.42916129132529257  0.7119887966036743  1.0000
  Si  Si46      1.0  0.7080308646440218  0.426695007122961  0.7951341969786753  1.0000
  Si  Si47      1.0  0.2999089854643009  0.5736000291363585  0.21650646729543982  1.0000
  Si  Si48      1.0  0.4233365691722714  0.827183251149483  0.6862024434331772  1.0000
  Si  Si49      1.0  0.576593597332889  0.17069571102021652  0.3095129735508256  1.0000
  Si  Si50      1.0  0.0752281531687869  0.1717725513207927  0.1884126419116356  1.0000
  Si  Si51      1.0  0.9236578292840248  0.8290408184550457  0.8128500079526093  1.0000
  Si  Si52      1.0  0.5779503041442351  0.32722651553082077  0.3026813263260975  1.0000
  Si  Si53      1.0  0.4238150954701174  0.670412761157401  0.6881638561728101  1.0000
  Si  Si54      1.0  0.9260131057287859  0.672939114035083  0.8105579503471111  1.0000
  Si  Si55      1.0  0.0754382076556406  0.3284085975122618  0.19077868697392  1.0000
  Si  Si56      1.0  0.3165125707759799  0.8743122778694677  0.8329600452390826  1.0000
  Si  Si57      1.0  0.6835788156309401  0.1262169517538508  0.1623238061034235  1.0000
  Si  Si58      1.0  0.1830202883897193  0.12586500274543802  0.334576325457928  1.0000
  Si  Si59      1.0  0.8172417799471389  0.8757486946132144  0.6641934609686242  1.0000
  Si  Si60      1.0  0.6822616065492043  0.37512554908394696  0.1619212122086599  1.0000
  Si  Si61      1.0  0.3166998690297518  0.6251758910949216  0.8346113229208717  1.0000
  Si  Si62      1.0  0.8185393515613872  0.6258522615190535  0.6661432110647133  1.0000
  Si  Si63      1.0  0.1847376380328955  0.3749009891044591  0.3352304814880246  1.0000
  Si  Si64      1.0  0.27244799095604  0.8279579274939981  0.0372482125866664  1.0000
  Si  Si65      1.0  0.730062498371679  0.17310200337403361  0.958292397581252  1.0000
  Si  Si66      1.0  0.2257099404622462  0.17378156112311724  0.5397579594152639  1.0000
  Si  Si67      1.0  0.7741389194787484  0.8273788468208404  0.46032902202216636  1.0000
  Si  Si68      1.0  0.736827541207171  0.3273118673676904  0.9652083581344336  1.0000
  Si  Si69      1.0  0.2746619510290157  0.6721277489366064  0.0402406364613753  1.0000
  Si  Si70      1.0  0.7729671379519292  0.671768234025894  0.4617375813766532  1.0000
  Si  Si71      1.0  0.22709698636771913  0.3289948905419228  0.540251071693648  1.0000
  Si  Si72      1.0  0.1172287735526506  0.8270860329636003  0.0251247935929952  1.0000
  Si  Si73      1.0  0.8861144160294552  0.1698202293284731  0.9749589015651783  1.0000
  Si  Si74      1.0  0.3813545538203728  0.1707560439107142  0.5247829693568297  1.0000
  Si  Si75      1.0  0.6184922874206353  0.8290113491870237  0.4735589575210529  1.0000
  Si  Si76      1.0  0.8882305442066492  0.3244658761986726  0.9817272379358106  1.0000
  Si  Si77      1.0  0.1181927863334487  0.6704705206554542  0.0262859695631286  1.0000
  Si  Si78      1.0  0.61756580460987  0.6725921405023663  0.4729348012021162  1.0000
  Si  Si79      1.0  0.3823649822043672  0.3263147113294912  0.5230663943889481  1.0000
  Si  Si80      1.0  0.0694031129811881  0.880389394172725  0.8170222084252826  1.0000
  Si  Si81      1.0  0.9303671930539986  0.1173465523730353  0.18323037676791037  1.0000
  Si  Si82      1.0  0.429613795357597  0.11843207824183831  0.316753790647624  1.0000
  Si  Si83      1.0  0.569522615118696  0.8804771602464833  0.6828852718402947  1.0000
  Si  Si84      1.0  0.9322181222163444  0.381440549797708  0.1853624530886079  1.0000
  Si  Si85      1.0  0.0709388366249142  0.6191517934848246  0.8150047531816769  1.0000
  Si  Si86      1.0  0.5722322056089996  0.625646084050999  0.6823913384701673  1.0000
  Si  Si87      1.0  0.4311825692450043  0.38007934540015803  0.3159135909128867  1.0000
  Si  Si88      1.0  0.1945875094470949  0.8273843649090099  0.7023338348839069  1.0000
  Si  Si89      1.0  0.8042958181681132  0.1733689257298486  0.2944908665303988  1.0000
  Si  Si90      1.0  0.3042408680904984  0.1722936918473089  0.2022113611142326  1.0000
  Si  Si91      1.0  0.6965419392824849  0.8302894802395449  0.7966173247784404  1.0000
  Si  Si92      1.0  0.8044884286623175  0.32861172377587566  0.297521330824697  1.0000
  Si  Si93      1.0  0.1972792578177239  0.6724689667779759  0.7004514502734773  1.0000
  Si  Si94      1.0  0.6958478801493484  0.6764311221055417  0.7944281712768875  1.0000
  Si  Si95      1.0  0.3049096354023167  0.3276316407176578  0.20380641530308416  1.0000
  Mo  Mo1       1.0  0.5711696601665469  0.45596671184012244  0.6842404141786294  1.0000
