data_image0
_chemical_formula_structural       O193Si95Mo
_chemical_formula_sum              "O193 Si95 Mo1"
_cell_length_a       20.375155791812787
_cell_length_b       19.79682763746821
_cell_length_c       13.386281093047554
_cell_angle_alpha    89.93507563062244
_cell_angle_beta     90.10969769789251
_cell_angle_gamma    90.1204354168528

_space_group_name_H-M_alt    "P 1"
_space_group_IT_number       1

loop_
  _space_group_symop_operation_xyz
  'x, y, z'

loop_
  _atom_site_type_symbol
  _atom_site_label
  _atom_site_symmetry_multiplicity
  _atom_site_fract_x
  _atom_site_fract_y
  _atom_site_fract_z
  _atom_site_occupancy
  O   O1        1.0  0.5030151785210049  0.07303713028714179  0.7081995420859594  1.0000
  O   O2        1.0  0.4973189945145155  0.9260591818569774  0.2927545938996708  1.0000
  O   O3        1.0  0.9968897565550128  0.9265715288682864  0.20879874057136888  1.0000
  O   O4        1.0  0.0036657936104236  0.07048369479509012  0.7894016434070261  1.0000
  O   O5        1.0  0.4936040133054378  0.5759863623055257  0.2941418704155603  1.0000
  O   O6        1.0  0.4861733337632116  0.4437848941694705  0.7325365024083633  1.0000
  O   O7        1.0  0.9969711082077032  0.4287011918078162  0.7952637059180332  1.0000
  O   O8        1.0  0.993639255875026  0.5733530108356465  0.20947139113154079  1.0000
  O   O9        1.0  0.38732910395990927  0.0671396662518201  0.7960426764765297  1.0000
  O   O10       1.0  0.6130288000534018  0.9329126305313046  0.20487120283072147  1.0000
  O   O11       1.0  0.11269535389502432  0.9342110086703692  0.2961372796164716  1.0000
  O   O12       1.0  0.8871606899529112  0.06857012367274219  0.7044776141416681  1.0000
  O   O13       1.0  0.6073105993222713  0.5704419123805773  0.19961543271750398  1.0000
  O   O14       1.0  0.3660460991728103  0.4220249226030274  0.7920956268120518  1.0000
  O   O15       1.0  0.8810988940559605  0.428162805950316  0.7048547949201932  1.0000
  O   O16       1.0  0.10849862024308192  0.5591281783205185  0.2920500449375706  1.0000
  O   O17       1.0  0.4019948174680141  0.1377407759001249  0.630209016187786  1.0000
  O   O18       1.0  0.5981281290719807  0.8597431077087132  0.3688415339351795  1.0000
  O   O19       1.0  0.0984790062148817  0.8624454041131469  0.1318101766275539  1.0000
  O   O20       1.0  0.9055939482197661  0.1386726102866604  0.8693179722257907  1.0000
  O   O21       1.0  0.5971435901081662  0.6380217453798919  0.3694563990482092  1.0000
  O   O22       1.0  0.40846573807136194  0.35812069259064855  0.6319082645312839  1.0000
  O   O23       1.0  0.8988203216420599  0.3583830145165412  0.8712693108108727  1.0000
  O   O24       1.0  0.097088553816255  0.6363493601363053  0.1327068740963879  1.0000
  O   O25       1.0  0.4070148413541518  0.0027255733123207003  0.62325774313872  1.0000
  O   O26       1.0  0.5939863939208392  0.9945542868509544  0.37931617350518754  1.0000
  O   O27       1.0  0.0921050206360185  0.997172673273021  0.12224511203491471  1.0000
  O   O28       1.0  0.9064395937792391  0.004235890536543701  0.8780870362984168  1.0000
  O   O29       1.0  0.5909725328030373  0.5026142352861359  0.36771322575505194  1.0000
  O   O30       1.0  0.3892742735938762  0.4905935203121772  0.6224352053635447  1.0000
  O   O31       1.0  0.8959072979451228  0.4933685247131322  0.8752201154262175  1.0000
  O   O32       1.0  0.0830658343489761  0.5026267788816903  0.1129132254582437  1.0000
  O   O33       1.0  0.3219740977052999  0.0374656573753805  0.9620965845141757  1.0000
  O   O34       1.0  0.6770106287295706  0.961559274749387  0.0373919923139503  1.0000
  O   O35       1.0  0.1780979869320783  0.9621822676868274  0.4619019032157616  1.0000
  O   O36       1.0  0.8230254418175784  0.03949221563333591  0.5378039872588016  1.0000
  O   O37       1.0  0.6767681810268212  0.5425227375923145  0.039647474449119896  1.0000
  O   O38       1.0  0.31647083972827866  0.4616570821538728  0.9648413073085531  1.0000
  O   O39       1.0  0.8206861655766532  0.46506236214550334  0.5375376975791069  1.0000
  O   O40       1.0  0.1730512484619396  0.538948528839932  0.4590736020710771  1.0000
  O   O41       1.0  0.3208519793865982  0.9535770610237846  0.8033781046377019  1.0000
  O   O42       1.0  0.6783753543532182  0.0475514483354033  0.19219370608952457  1.0000
  O   O43       1.0  0.1809500608708752  0.04692873346417801  0.3049483527815931  1.0000
  O   O44       1.0  0.8210408758226444  0.9549891628705014  0.6956383090466698  1.0000
  O   O45       1.0  0.67368952175372  0.45568811931373104  0.19303050184801557  1.0000
  O   O46       1.0  0.31832420212947266  0.5446556000949174  0.8059559240472124  1.0000
  O   O47       1.0  0.8225164573609103  0.5469311643031215  0.696400892035936  1.0000
  O   O48       1.0  0.1846059149028953  0.452342974410385  0.304163786754767  1.0000
  O   O49       1.0  0.25598894390920646  0.0689227241738355  0.8001358607272175  1.0000
  O   O50       1.0  0.7442454496097757  0.9327879125721303  0.1999015607422079  1.0000
  O   O51       1.0  0.2440307548606184  0.9306007950972891  0.29937813554930626  1.0000
  O   O52       1.0  0.7557225550379363  0.06987328760004789  0.6994176998631055  1.0000
  O   O53       1.0  0.7376577053513432  0.5702700649188592  0.2105159765862416  1.0000
  O   O54       1.0  0.23779525914310404  0.438891103104004  0.8110713438028475  1.0000
  O   O55       1.0  0.7499118616860216  0.4360355724470068  0.6961072798423555  1.0000
  O   O56       1.0  0.2384997074293351  0.5730752655098679  0.2956954496258839  1.0000
  O   O57       1.0  0.2932447336628721  0.1253235468501318  0.10391698706919042  1.0000
  O   O58       1.0  0.7075671567677841  0.8753895358823662  0.8948022839100145  1.0000
  O   O59       1.0  0.2060793001522176  0.8749829478066334  0.6048632783915283  1.0000
  O   O60       1.0  0.7919475840560629  0.1260575968451095  0.3952017745370278  1.0000
  O   O61       1.0  0.7100391772606809  0.6291079351935144  0.897991510437895  1.0000
  O   O62       1.0  0.2888075477496961  0.37572114204545654  0.1095364146156309  1.0000
  O   O63       1.0  0.8067182689078849  0.375684034889639  0.3958650728441599  1.0000
  O   O64       1.0  0.2033761904985025  0.625983960067256  0.6025090389801205  1.0000
  O   O65       1.0  0.19992676355571054  0.043278097160795906  0.0327286084436393  1.0000
  O   O66       1.0  0.7995461695291384  0.9578896639244388  0.9697996710066066  1.0000
  O   O67       1.0  0.2999171534118223  0.9563946181521094  0.5320009120368333  1.0000
  O   O68       1.0  0.7007396501729224  0.0423173634549087  0.4693469966182683  1.0000
  O   O69       1.0  0.8003504431265182  0.5486396909018857  0.9806154121109301  1.0000
  O   O70       1.0  0.19731773572517913  0.46192060082219244  0.041817741495850394  1.0000
  O   O71       1.0  0.7063401903811121  0.4575999419866028  0.4391347255215431  1.0000
  O   O72       1.0  0.29572131251858463  0.549329723352353  0.5198279441893672  1.0000
  O   O73       1.0  0.2973126939308121  0.9951362265244913  0.1450464412558087  1.0000
  O   O74       1.0  0.7034327831616015  0.005980190053817701  0.8556621296077572  1.0000
  O   O75       1.0  0.20328611957524342  0.00515775864797  0.6443653803037219  1.0000
  O   O76       1.0  0.7977967097699978  0.9958047009958959  0.3553985223353279  1.0000
  O   O77       1.0  0.7078637223011918  0.49917551393282983  0.8596179972999446  1.0000
  O   O78       1.0  0.298677748812449  0.5058418357891384  0.1488915239051273  1.0000
  O   O79       1.0  0.809865511203215  0.5063599621142255  0.3504778650193389  1.0000
  O   O80       1.0  0.2040315473062103  0.49541151887995233  0.6393718412798471  1.0000
  O   O81       1.0  0.1088358155512556  0.129520429404279  0.0979434074657368  1.0000
  O   O82       1.0  0.890549908684017  0.872378075121337  0.9037428236267203  1.0000
  O   O83       1.0  0.3907769534758714  0.8702078949645488  0.5968196110875598  1.0000
  O   O84       1.0  0.6104441048257447  0.127235420113148  0.3998279317010318  1.0000
  O   O85       1.0  0.8923722972893933  0.6273487825995384  0.9009023210833319  1.0000
  O   O86       1.0  0.10866714507147492  0.3713587600794623  0.09910395397063089  1.0000
  O   O87       1.0  0.6082442558056941  0.3723456722512907  0.40426446481085887  1.0000
  O   O88       1.0  0.390054366242984  0.6252924721331551  0.6000625372667929  1.0000
  O   O89       1.0  0.08364666507997852  0.051272519329884414  0.9433762509294735  1.0000
  O   O90       1.0  0.9162303614255477  0.9514490014391378  0.057718697320426296  1.0000
  O   O91       1.0  0.4166004590311754  0.9503848811048224  0.4439008708343567  1.0000
  O   O92       1.0  0.5835153783653461  0.0508474994843897  0.5559183419696414  1.0000
  O   O93       1.0  0.9230352465442004  0.5452988662021814  0.0492276974285118  1.0000
  O   O94       1.0  0.0880555695408774  0.4432749738627709  0.9361253834946461  1.0000
  O   O95       1.0  0.6047746837968669  0.4665537460570133  0.5526562987336512  1.0000
  O   O96       1.0  0.41785382710577557  0.5449243680809722  0.4489307470123406  1.0000
  O   O97       1.0  0.1296881691983225  0.0816651594188494  0.7622812492902654  1.0000
  O   O98       1.0  0.8704254116947276  0.9175871023301791  0.2377633144959468  1.0000
  O   O99       1.0  0.37087738847074453  0.9182291956594851  0.2635252104983854  1.0000
  O   O100      1.0  0.6291028310524869  0.0812204856180332  0.7369313694611908  1.0000
  O   O101      1.0  0.8662352358127342  0.5834331990901167  0.2173225171570233  1.0000
  O   O102      1.0  0.11887090981850551  0.419944990015893  0.7440842078676538  1.0000
  O   O103      1.0  0.6327967600848644  0.4075186414451479  0.7684068223644783  1.0000
  O   O104      1.0  0.36682273490322626  0.5816008738249702  0.2741581939598869  1.0000
  O   O105      1.0  0.0789800133083443  0.9610463838457308  0.7960992568958931  1.0000
  O   O106      1.0  0.923483464215598  0.037477213395179905  0.21070543184259297  1.0000
  O   O107      1.0  0.4250226186891435  0.037686864742331  0.2923556373501775  1.0000
  O   O108      1.0  0.5752567603726678  0.9614941290034229  0.7043244216990205  1.0000
  O   O109      1.0  0.920841377142584  0.4611578946136686  0.20454783654718378  1.0000
  O   O110      1.0  0.072945022836148  0.5385423480149877  0.7972486613053213  1.0000
  O   O111      1.0  0.5785880076498999  0.5340281748516172  0.7089766941674354  1.0000
  O   O112      1.0  0.42458953471221494  0.4620102749672806  0.2930432791584657  1.0000
  O   O113      1.0  0.21666331215695464  0.1392869194410097  0.6457506600942533  1.0000
  O   O114      1.0  0.7829682550897956  0.8616101945740287  0.35430838144966065  1.0000
  O   O115      1.0  0.2850241874306657  0.8607078145786702  0.1454109729388409  1.0000
  O   O116      1.0  0.7156126858877481  0.1404009091346821  0.8527621618892535  1.0000
  O   O117      1.0  0.7916666528626084  0.6403024963190699  0.35347382266274335  1.0000
  O   O118      1.0  0.2180237207143637  0.36248941302612475  0.6502529033852524  1.0000
  O   O119      1.0  0.7376877410076256  0.3681429504166152  0.8647600920345366  1.0000
  O   O120      1.0  0.28816594180213073  0.6404399484719338  0.1458984028081491  1.0000
  O   O121      1.0  0.49608509285036395  0.8550138393197673  0.714352523342814  1.0000
  O   O122      1.0  0.5038343589398003  0.1440961267746791  0.2846087360873503  1.0000
  O   O123      1.0  0.0032747290023892005  0.1431382331333117  0.21586151825552247  1.0000
  O   O124      1.0  0.995787073452091  0.8578735674430871  0.7850527819929781  1.0000
  O   O125      1.0  0.5040474487575121  0.3559625040113894  0.2845377192695761  1.0000
  O   O126      1.0  0.4983526543063256  0.6412538422177531  0.7114866863964702  1.0000
  O   O127      1.0  0.9975008800095139  0.6466119119469709  0.7842690256666337  1.0000
  O   O128      1.0  0.0060172281652593  0.3599179255479394  0.2229031389185273  1.0000
  O   O129      1.0  0.3788028418069545  0.833684485727029  0.7878023687763922  1.0000
  O   O130      1.0  0.620581462246745  0.1667430983244924  0.2099324594257313  1.0000
  O   O131      1.0  0.12052163215621621  0.1653330664887873  0.2890777586122619  1.0000
  O   O132      1.0  0.8784800442201932  0.8353787253182774  0.7127111032759363  1.0000
  O   O133      1.0  0.6214870229330148  0.33422388971250383  0.21295754425524058  1.0000
  O   O134      1.0  0.3824501333790117  0.6614122910733231  0.7906660581716186  1.0000
  O   O135      1.0  0.8796380738817478  0.6669166568616088  0.7117337684316145  1.0000
  O   O136      1.0  0.12335295863524441  0.33408266520761276  0.2906267930635469  1.0000
  O   O137      1.0  0.42689531709651224  0.7477720181323402  0.6540520407381778  1.0000
  O   O138      1.0  0.5733143808036846  0.24977460552569244  0.3483218329289604  1.0000
  O   O139      1.0  0.070737227246712  0.2508919071590958  0.1564344662541614  1.0000
  O   O140      1.0  0.9272106985079893  0.7509542327217154  0.8485790134936421  1.0000
  O   O141      1.0  0.3156880381028975  0.8677771690959718  0.953306074047675  1.0000
  O   O142      1.0  0.6852808264841133  0.13652227322880564  0.0445244491623616  1.0000
  O   O143      1.0  0.184786468600115  0.1347285597737149  0.45381089207543607  1.0000
  O   O144      1.0  0.8158694784841145  0.8685709860822995  0.545913831921011  1.0000
  O   O145      1.0  0.6888103277479154  0.3666128023890335  0.0491514225600399  1.0000
  O   O146      1.0  0.3147845431472471  0.6325145829243657  0.9530918450584153  1.0000
  O   O147      1.0  0.8167697244337616  0.6331922207553936  0.5465582602952898  1.0000
  O   O148      1.0  0.18696503908956222  0.36838625791841784  0.45728589879607556  1.0000
  O   O149      1.0  0.24875653265311254  0.8425261165096876  0.7874928380523608  1.0000
  O   O150      1.0  0.7508750787970934  0.1582089069878823  0.21155338368562418  1.0000
  O   O151      1.0  0.2508979064743052  0.15862339095656802  0.2866627583202082  1.0000
  O   O152      1.0  0.7483392525730912  0.8446256785603914  0.7109292159606425  1.0000
  O   O153      1.0  0.7506410265608945  0.3494735049234929  0.2211313176682004  1.0000
  O   O154      1.0  0.251996889353887  0.6582207645558716  0.7829336398491404  1.0000
  O   O155      1.0  0.7493582020641648  0.6572856445723125  0.7120334278012523  1.0000
  O   O156      1.0  0.2533024530833125  0.3388902875574901  0.2936268735165832  1.0000
  O   O157      1.0  0.2944146077075345  0.7502693348514036  0.0392160040976198  1.0000
  O   O158      1.0  0.7100430945077236  0.2528451250652052  0.9533153281449904  1.0000
  O   O159      1.0  0.2070199139478936  0.2511998096812417  0.5449728650885055  1.0000
  O   O160      1.0  0.7962985299615675  0.7508679831810166  0.459111688197349  1.0000
  O   O161      1.0  0.19514219648364442  0.8346576998056902  0.0061822061977728  1.0000
  O   O162      1.0  0.806776283586442  0.1665750523902962  0.990803360298047  1.0000
  O   O163      1.0  0.3053808805626746  0.1667371954270866  0.5051824605560661  1.0000
  O   O164      1.0  0.6955121037574603  0.8332197365469841  0.4948525546464675  1.0000
  O   O165      1.0  0.8115560808089531  0.32877018255080287  0.0139756557296872  1.0000
  O   O166      1.0  0.19514352978340052  0.6644359471683734  0.009569232762517  1.0000
  O   O167      1.0  0.6974457257086203  0.6648712322044428  0.48736313903416467  1.0000
  O   O168      1.0  0.3073481397508174  0.3347397673677589  0.512195999959192  1.0000
  O   O169      1.0  0.09454348558610351  0.7494827567891702  0.027945886139814198  1.0000
  O   O170      1.0  0.9122179968345389  0.24766015011797807  0.9805918007510538  1.0000
  O   O171      1.0  0.408380967297207  0.24887365829147226  0.5197277078557653  1.0000
  O   O172      1.0  0.5947587575887837  0.7482782397292501  0.47891591593092897  1.0000
  O   O173      1.0  0.07854402528977572  0.8670975667493721  0.936380581388693  1.0000
  O   O174      1.0  0.9198253399229162  0.1271739394470309  0.06561549824808449  1.0000
  O   O175      1.0  0.42055383328877555  0.1289466771499864  0.4350264476622339  1.0000
  O   O176      1.0  0.5793927662263224  0.8680925081188835  0.5639123586106503  1.0000
  O   O177      1.0  0.9310677081965558  0.368397654241757  0.06241708953776389  1.0000
  O   O178      1.0  0.078744807939432  0.6315530149916017  0.9375439469227811  1.0000
  O   O179      1.0  0.5840225710394418  0.6280505111410396  0.5659623076673561  1.0000
  O   O180      1.0  0.4210338683675774  0.3693913729537133  0.4350636980613175  1.0000
  O   O181      1.0  0.12154275787007451  0.8395648453577319  0.7507259515264102  1.0000
  O   O182      1.0  0.8776948441872502  0.1592577784146068  0.2503146790809131  1.0000
  O   O183      1.0  0.37802512550133216  0.15879768655783202  0.24987446629035787  1.0000
  O   O184      1.0  0.6216909016975614  0.841329103574085  0.7504515465484168  1.0000
  O   O185      1.0  0.8792930462136281  0.3364438958422938  0.2399588264934098  1.0000
  O   O186      1.0  0.1239793906107174  0.6581957545413989  0.7538981747605176  1.0000
  O   O187      1.0  0.6227322371356449  0.6575935702142481  0.7524924253365607  1.0000
  O   O188      1.0  0.3788231158851648  0.34111832223617117  0.2484202525048688  1.0000
  O   O189      1.0  0.1983128661484008  0.750141534327864  0.6651607256998748  1.0000
  O   O190      1.0  0.8008190735021861  0.2507603960627504  0.3327379962912556  1.0000
  O   O191      1.0  0.3018425588101742  0.2500961018796687  0.16455442541864307  1.0000
  O   O192      1.0  0.6999788879374116  0.7510556959242611  0.8319948492811304  1.0000
  O   O193      1.0  0.5518181093750699  0.3582743322187344  0.6212090969710425  1.0000
  Si  Si1       1.0  0.4246802944599546  0.06964394733124801  0.6885620813522464  1.0000
  Si  Si2       1.0  0.5757456463553555  0.9287095236758264  0.31229779238255895  1.0000
  Si  Si3       1.0  0.0751458635646306  0.9305985098587332  0.18884387370698077  1.0000
  Si  Si4       1.0  0.9256011643399453  0.06982749781139841  0.8111273590690478  1.0000
  Si  Si5       1.0  0.5722794478682983  0.5719905085392283  0.3089096790514405  1.0000
  Si  Si6       1.0  0.41137614411256956  0.42847181377590987  0.6933551805843108  1.0000
  Si  Si7       1.0  0.9186027598294996  0.42742958095012623  0.8126150529223389  1.0000
  Si  Si8       1.0  0.07127612906761091  0.567380949968731  0.1855820592025354  1.0000
  Si  Si9       1.0  0.3216030316020933  0.031775157648365894  0.8412631617996862  1.0000
  Si  Si10      1.0  0.678092085180782  0.9685719922860985  0.15804625003968747  1.0000
  Si  Si11      1.0  0.1790440930396747  0.9684062154330507  0.3412413827118922  1.0000
  Si  Si12      1.0  0.8216159042283513  0.0333132323245838  0.6585225334897625  1.0000
  Si  Si13      1.0  0.6741835191454938  0.5347592961742766  0.1599678998148011  1.0000
  Si  Si14      1.0  0.3093939516642124  0.46733521425524216  0.8447412675849849  1.0000
  Si  Si15      1.0  0.8190688672871129  0.46911858442548293  0.657861623509301  1.0000
  Si  Si16      1.0  0.1764894571268151  0.530825201128242  0.33875351992841  1.0000
  Si  Si17      1.0  0.27753164637250904  0.0503541907372871  0.0609637579130721  1.0000
  Si  Si18      1.0  0.7224300415135353  0.9500727150771018  0.9391407693902322  1.0000
  Si  Si19      1.0  0.22254490326752713  0.949541771413903  0.5610002511033899  1.0000
  Si  Si20      1.0  0.7777682468040005  0.05091624351733359  0.4391681848623057  1.0000
  Si  Si21      1.0  0.7242084273300761  0.5552175554989042  0.9445052806442709  1.0000
  Si  Si22      1.0  0.2746773354973969  0.45105876643314546  0.0669147719835689  1.0000
  Si  Si23      1.0  0.7853743341182241  0.4508745662315503  0.43110771423452593  1.0000
  Si  Si24      1.0  0.2194481229775893  0.5523430461407728  0.5558555467629069  1.0000
  Si  Si25      1.0  0.1216938506402269  0.0552867612427405  0.049463341283466994  1.0000
  Si  Si26      1.0  0.8777322882046473  0.9464886217560621  0.9521274776490338  1.0000
  Si  Si27      1.0  0.3781924513664232  0.9448582980904593  0.5493814225477271  1.0000
  Si  Si28      1.0  0.6225673751258891  0.05375018682236651  0.4508776240230359  1.0000
  Si  Si29      1.0  0.8776376439799689  0.5540973147371766  0.9508649803295753  1.0000
  Si  Si30      1.0  0.11942781413136172  0.4448501235778093  0.0472257001327107  1.0000
  Si  Si31      1.0  0.6275941938689559  0.4484513262466641  0.4388511891232539  1.0000
  Si  Si32      1.0  0.3732696537824547  0.5532039793986029  0.54827248915954  1.0000
  Si  Si33      1.0  0.0740604804527057  0.040661926890498294  0.8240333037061384  1.0000
  Si  Si34      1.0  0.9266974978092535  0.9586337271319924  0.1774601015694176  1.0000
  Si  Si35      1.0  0.4274837811919246  0.9585526480870805  0.3244086129944239  1.0000
  Si  Si36      1.0  0.5727895995681901  0.0410911160451853  0.6751739667014526  1.0000
  Si  Si37      1.0  0.9257482150263326  0.5399662911711022  0.1702007837844458  1.0000
  Si  Si38      1.0  0.06923971201179302  0.45811367564736993  0.8203123943603353  1.0000
  Si  Si39      1.0  0.4255329505947589  0.5405283455358909  0.3282494771748767  1.0000
  Si  Si40      1.0  0.2013666252034228  0.0728976166503115  0.7120349672831614  1.0000
  Si  Si41      1.0  0.7988554167657803  0.9278141700048201  0.2879191064651546  1.0000
  Si  Si42      1.0  0.29935788490397514  0.9270363543111871  0.2124247598594818  1.0000
  Si  Si43      1.0  0.7009537665262039  0.07349659782245371  0.7871553291072673  1.0000
  Si  Si44      1.0  0.8006675991480905  0.5743207311585051  0.2840290674272666  1.0000
  Si  Si45      1.0  0.194535614315185  0.42943723546667756  0.7096196063555429  1.0000
  Si  Si46      1.0  0.708343884327462  0.42914587981747915  0.7986993754089622  1.0000
  Si  Si47      1.0  0.2978741557840122  0.574374105851067  0.21518590039786448  1.0000
  Si  Si48      1.0  0.4234558797846262  0.8265343327656924  0.6875655573178063  1.0000
  Si  Si49      1.0  0.576731657565202  0.1717173316855487  0.31126761670879105  1.0000
  Si  Si50      1.0  0.07559938390793941  0.1719865180592489  0.18903661159818616  1.0000
  Si  Si51      1.0  0.9233618720137527  0.8293965884345381  0.8130232957438066  1.0000
  Si  Si52      1.0  0.5764247852641513  0.32819100860107275  0.3131399605076501  1.0000
  Si  Si53      1.0  0.42541564232454854  0.6688716927754372  0.6886169643798807  1.0000
  Si  Si54      1.0  0.9244493578341909  0.6727774539914376  0.8119639999524815  1.0000
  Si  Si55      1.0  0.0770049476972649  0.32913134270073674  0.1917198409502128  1.0000
  Si  Si56      1.0  0.3162253052591557  0.8740739908145913  0.8323598640557669  1.0000
  Si  Si57      1.0  0.6836729883107986  0.12727456578735502  0.16504129030926878  1.0000
  Si  Si58      1.0  0.1843002246593826  0.1265407275208388  0.3331570190126671  1.0000
  Si  Si59      1.0  0.8160375323579969  0.8756121777365752  0.666766161317344  1.0000
  Si  Si60      1.0  0.6836148614228392  0.3761824218274435  0.1695201253127102  1.0000
  Si  Si61      1.0  0.3169362101447071  0.6246753344389113  0.8325327647726579  1.0000
  Si  Si62      1.0  0.8167785399065814  0.6264374606096418  0.6672538681224415  1.0000
  Si  Si63      1.0  0.18670583182842324  0.37321273771350866  0.3360209157461813  1.0000
  Si  Si64      1.0  0.2720731687295804  0.8283626608297019  0.0365732682737359  1.0000
  Si  Si65      1.0  0.7299461718435479  0.1738560218693429  0.9603801131107402  1.0000
  Si  Si66      1.0  0.22894731345247923  0.17299149158575813  0.5376998586470582  1.0000
  Si  Si67      1.0  0.77218569695855  0.8284438310481355  0.4631753014921919  1.0000
  Si  Si68      1.0  0.7369803638366162  0.3287100650472272  0.9707477358101432  1.0000
  Si  Si69      1.0  0.27246690059096856  0.6719414183609023  0.0373331788000766  1.0000
  Si  Si70      1.0  0.7747040745836341  0.6723371175473243  0.4611455435449002  1.0000
  Si  Si71      1.0  0.23035825370069682  0.3291518730514535  0.541488440352237  1.0000
  Si  Si72      1.0  0.1168544805670179  0.8281729260318542  0.0257612604779666  1.0000
  Si  Si73      1.0  0.8857409087117573  0.1702570767655341  0.9764521154935911  1.0000
  Si  Si74      1.0  0.3840513424931489  0.1708137177651234  0.5228964959045155  1.0000
  Si  Si75      1.0  0.6170418682435186  0.8269737218238953  0.476245261700201  1.0000
  Si  Si76      1.0  0.8884983118179219  0.3257958673296976  0.9812900732392205  1.0000
  Si  Si77      1.0  0.11661803287715591  0.6708272259855862  0.027031565351486198  1.0000
  Si  Si78      1.0  0.6183228854258132  0.6698633933768025  0.4763804864275674  1.0000
  Si  Si79      1.0  0.38626993101643403  0.32739079610524896  0.5246619600200939  1.0000
  Si  Si80      1.0  0.069076441003977  0.8811584711894528  0.8173806480701721  1.0000
  Si  Si81      1.0  0.9306298190899723  0.1171033705358217  0.1852715289020335  1.0000
  Si  Si82      1.0  0.43147699377895543  0.11765993486581272  0.3157701188909238  1.0000
  Si  Si83      1.0  0.5684645566393999  0.8812838642041788  0.6827652236819334  1.0000
  Si  Si84      1.0  0.9339574094532165  0.38170627811213187  0.18275047632266042  1.0000
  Si  Si85      1.0  0.06877951684396391  0.6188612417340085  0.8184450272075017  1.0000
  Si  Si86      1.0  0.5714813999583481  0.6135711539313173  0.6848216613885428  1.0000
  Si  Si87      1.0  0.43170273094649386  0.3819292758281608  0.3159888544430356  1.0000
  Si  Si88      1.0  0.1936746597226081  0.8278226445672313  0.7022743974723578  1.0000
  Si  Si89      1.0  0.8055190385105089  0.1725811975087191  0.2974813238254219  1.0000
  Si  Si90      1.0  0.3060855738276336  0.17216466210918374  0.2014800156123136  1.0000
  Si  Si91      1.0  0.6942487333708575  0.8289691872293338  0.7969406300999947  1.0000
  Si  Si92      1.0  0.8093684414735473  0.32843159899784513  0.2968375922751463  1.0000
  Si  Si93      1.0  0.1944212235284796  0.6721628295836451  0.701478491890255  1.0000
  Si  Si94      1.0  0.6949026687589068  0.6727795281089692  0.7977454991558078  1.0000
  Si  Si95      1.0  0.3058821073663586  0.32736158071684723  0.204003066681386  1.0000
  Mo  Mo1       1.0  0.5703983021734164  0.43497151931800454  0.6750278062193804  1.0000
