data_image0
_chemical_formula_structural       O192Si96
_chemical_formula_sum              "O192 Si96"
_cell_length_a       20.305370668970536
_cell_length_b       19.85828887166003
_cell_length_c       13.361742439330454
_cell_angle_alpha    90.0
_cell_angle_beta     90.0
_cell_angle_gamma    90.0

_space_group_name_H-M_alt    "P 1"
_space_group_IT_number       1

loop_
  _space_group_symop_operation_xyz
  'x, y, z'

loop_
  _atom_site_type_symbol
  _atom_site_label
  _atom_site_symmetry_multiplicity
  _atom_site_fract_x
  _atom_site_fract_y
  _atom_site_fract_z
  _atom_site_occupancy
  O   O1        1.0  0.5026974411631787  0.0726167433191238  0.7080866646619677  1.0000
  O   O2        1.0  0.4973025588368215  0.9273832796808744  0.2919133353380328  1.0000
  O   O3        1.0  0.9973025588368212  0.9273832796808744  0.20808666466196749  1.0000
  O   O4        1.0  0.0026974411631789  0.0726167433191238  0.7919133353380321  1.0000
  O   O5        1.0  0.4973025588368215  0.5726167203191256  0.2919133353380328  1.0000
  O   O6        1.0  0.5026974411631787  0.42738324968087854  0.7080866646619677  1.0000
  O   O7        1.0  0.0026974411631789  0.42738324968087854  0.7919133353380321  1.0000
  O   O8        1.0  0.9973025588368212  0.5726167203191256  0.20808666466196749  1.0000
  O   O9        1.0  0.3869328942246643  0.0687211674433934  0.7961907694137721  1.0000
  O   O10       1.0  0.6130671057753362  0.9312788405566078  0.2038092305862276  1.0000
  O   O11       1.0  0.1130671057753357  0.9312788405566078  0.2961907694137799  1.0000
  O   O12       1.0  0.8869328942246637  0.0687211674433934  0.7038092305862278  1.0000
  O   O13       1.0  0.6130671057753362  0.5687211594433922  0.2038092305862276  1.0000
  O   O14       1.0  0.3869328942246643  0.4312788405566069  0.7961907694137721  1.0000
  O   O15       1.0  0.8869328942246637  0.4312788405566069  0.7038092305862278  1.0000
  O   O16       1.0  0.1130671057753357  0.5687211594433922  0.2961907694137799  1.0000
  O   O17       1.0  0.4024079647203886  0.1393249781020131  0.6304800639375051  1.0000
  O   O18       1.0  0.597592035279611  0.8606750068979819  0.3695199360624952  1.0000
  O   O19       1.0  0.09759203527961129  0.8606750068979819  0.1304800639375052  1.0000
  O   O20       1.0  0.902407964720389  0.1393249781020131  0.8695199360624948  1.0000
  O   O21       1.0  0.597592035279611  0.639324993102018  0.3695199360624952  1.0000
  O   O22       1.0  0.4024079647203886  0.3606750068979823  0.6304800639375051  1.0000
  O   O23       1.0  0.902407964720389  0.3606750068979823  0.8695199360624948  1.0000
  O   O24       1.0  0.09759203527961129  0.639324993102018  0.1304800639375052  1.0000
  O   O25       1.0  0.4048617222744004  0.0049076071845742  0.6227594131585833  1.0000
  O   O26       1.0  0.5951382777255995  0.9950923648154228  0.3772405868414164  1.0000
  O   O27       1.0  0.09513827772559949  0.9950923648154228  0.1227594131585835  1.0000
  O   O28       1.0  0.9048617222744005  0.0049076071845742  0.8772405868414166  1.0000
  O   O29       1.0  0.5951382777255995  0.504907635184577  0.3772405868414164  1.0000
  O   O30       1.0  0.4048617222744004  0.49509239481542583  0.6227594131585833  1.0000
  O   O31       1.0  0.9048617222744005  0.49509239481542583  0.8772405868414166  1.0000
  O   O32       1.0  0.09513827772559949  0.504907635184577  0.1227594131585835  1.0000
  O   O33       1.0  0.3243907322139524  0.038724546056267295  0.9641398775790228  1.0000
  O   O34       1.0  0.6756092677860478  0.9612754429437357  0.0358601224209777  1.0000
  O   O35       1.0  0.1756092677860474  0.9612754429437357  0.4641398775790223  1.0000
  O   O36       1.0  0.8243907322139522  0.038724546056267295  0.5358601224209771  1.0000
  O   O37       1.0  0.6756092677860478  0.5387245570562643  0.0358601224209777  1.0000
  O   O38       1.0  0.3243907322139524  0.4612754429437351  0.9641398775790228  1.0000
  O   O39       1.0  0.8243907322139522  0.4612754429437351  0.5358601224209771  1.0000
  O   O40       1.0  0.1756092677860474  0.5387245570562643  0.4641398775790223  1.0000
  O   O41       1.0  0.3238681356156492  0.9534694745165243  0.8080099047311772  1.0000
  O   O42       1.0  0.6761318643843516  0.0465305254834754  0.19199009526882269  1.0000
  O   O43       1.0  0.1761318643843509  0.0465305254834754  0.3080099047311771  1.0000
  O   O44       1.0  0.8238681356156484  0.9534694745165243  0.6919900952688227  1.0000
  O   O45       1.0  0.6761318643843516  0.4534694745165244  0.19199009526882269  1.0000
  O   O46       1.0  0.3238681356156492  0.5465305254834756  0.8080099047311772  1.0000
  O   O47       1.0  0.8238681356156484  0.5465305254834756  0.6919900952688227  1.0000
  O   O48       1.0  0.1761318643843509  0.4534694745165244  0.3080099047311771  1.0000
  O   O49       1.0  0.2554161021298328  0.0668523541768615  0.8026609899746253  1.0000
  O   O50       1.0  0.7445838978701665  0.9331476678231406  0.19733901002537438  1.0000
  O   O51       1.0  0.24458389787016677  0.9331476678231406  0.3026609899746256  1.0000
  O   O52       1.0  0.7554161021298335  0.0668523541768615  0.6973390100253747  1.0000
  O   O53       1.0  0.7445838978701665  0.5668523321768594  0.19733901002537438  1.0000
  O   O54       1.0  0.2554161021298328  0.43314763782313803  0.8026609899746253  1.0000
  O   O55       1.0  0.7554161021298335  0.43314763782313803  0.6973390100253747  1.0000
  O   O56       1.0  0.24458389787016677  0.5668523321768594  0.3026609899746256  1.0000
  O   O57       1.0  0.2917662175028237  0.12681834772429929  0.1037550000883345  1.0000
  O   O58       1.0  0.7082337824971761  0.8731816672756986  0.8962449929116612  1.0000
  O   O59       1.0  0.2082337824971764  0.8731816672756986  0.6037550070883387  1.0000
  O   O60       1.0  0.7917662175028239  0.12681834772429929  0.3962449929116613  1.0000
  O   O61       1.0  0.7082337824971761  0.6268183327243014  0.8962449929116612  1.0000
  O   O62       1.0  0.2917662175028237  0.373181667275698  0.1037550000883345  1.0000
  O   O63       1.0  0.7917662175028239  0.373181667275698  0.3962449929116613  1.0000
  O   O64       1.0  0.2082337824971764  0.6268183327243014  0.6037550070883387  1.0000
  O   O65       1.0  0.201054418416858  0.0424335301111698  0.0291272123936245  1.0000
  O   O66       1.0  0.7989455665831372  0.9575664888888276  0.9708728136063776  1.0000
  O   O67       1.0  0.29894556658313737  0.9575664888888276  0.5291271863936224  1.0000
  O   O68       1.0  0.7010544334168628  0.0424335301111698  0.470872783606382  1.0000
  O   O69       1.0  0.7989455665831372  0.5424335111111726  0.9708728136063776  1.0000
  O   O70       1.0  0.201054418416858  0.4575664588888325  0.0291272123936245  1.0000
  O   O71       1.0  0.7010544334168628  0.4575664588888325  0.470872783606382  1.0000
  O   O72       1.0  0.29894556658313737  0.5424335111111726  0.5291271863936224  1.0000
  O   O73       1.0  0.2968288794519751  0.9975601793327372  0.1473820138646663  1.0000
  O   O74       1.0  0.7031711505480268  0.0024398336672607  0.8526180161353358  1.0000
  O   O75       1.0  0.2031711205480247  0.0024398336672607  0.647381983864664  1.0000
  O   O76       1.0  0.7968288494519732  0.9975601793327372  0.35261798613533335  1.0000
  O   O77       1.0  0.7031711505480268  0.4975601663327393  0.8526180161353358  1.0000
  O   O78       1.0  0.2968288794519751  0.5024398336672602  0.1473820138646663  1.0000
  O   O79       1.0  0.7968288494519732  0.5024398336672602  0.35261798613533335  1.0000
  O   O80       1.0  0.2031711205480247  0.4975601663327393  0.647381983864664  1.0000
  O   O81       1.0  0.1094613947258197  0.1269953558088914  0.0954499562930076  1.0000
  O   O82       1.0  0.8905385902741826  0.8730046301911075  0.9045500507069894  1.0000
  O   O83       1.0  0.3905385902741827  0.8730046301911075  0.5954499492930105  1.0000
  O   O84       1.0  0.6094614097258173  0.1269953558088914  0.404550050706989  1.0000
  O   O85       1.0  0.8905385902741826  0.6269953698088924  0.9045500507069894  1.0000
  O   O86       1.0  0.1094613947258197  0.3730046301911073  0.0954499562930076  1.0000
  O   O87       1.0  0.6094614097258173  0.3730046301911073  0.404550050706989  1.0000
  O   O88       1.0  0.3905385902741827  0.6269953698088924  0.5954499492930105  1.0000
  O   O89       1.0  0.0830773702055479  0.0466119617809496  0.9432215923164261  1.0000
  O   O90       1.0  0.9169226597944548  0.953388038219051  0.05677840768358  1.0000
  O   O91       1.0  0.4169226297944518  0.953388038219051  0.44322159231642  1.0000
  O   O92       1.0  0.5830773402055454  0.0466119617809496  0.5567784076835737  1.0000
  O   O93       1.0  0.9169226597944548  0.546611961780949  0.05677840768358  1.0000
  O   O94       1.0  0.0830773702055479  0.4533880382190504  0.9432215923164261  1.0000
  O   O95       1.0  0.5830773402055454  0.4533880382190504  0.5567784076835737  1.0000
  O   O96       1.0  0.4169226297944518  0.546611961780949  0.44322159231642  1.0000
  O   O97       1.0  0.1289714002189932  0.0798906937652366  0.7631052819578368  1.0000
  O   O98       1.0  0.8710285847810094  0.9201092832347653  0.23689471804216286  1.0000
  O   O99       1.0  0.3710285847810094  0.9201092832347653  0.2631052819578369  1.0000
  O   O100      1.0  0.6289714152189906  0.0798906937652366  0.736894718042163  1.0000
  O   O101      1.0  0.8710285847810094  0.5798907167652347  0.23689471804216286  1.0000
  O   O102      1.0  0.1289714002189932  0.4201093132347672  0.7631052819578368  1.0000
  O   O103      1.0  0.6289714152189906  0.4201093132347672  0.736894718042163  1.0000
  O   O104      1.0  0.3710285847810094  0.5798907167652347  0.2631052819578369  1.0000
  O   O105      1.0  0.0742518301190504  0.9603772416664835  0.7910418468298457  1.0000
  O   O106      1.0  0.9257481918809516  0.0396227583335169  0.208958153170154  1.0000
  O   O107      1.0  0.4257481628809454  0.0396227583335169  0.291041846829846  1.0000
  O   O108      1.0  0.5742518081190484  0.9603772416664835  0.7089581531701542  1.0000
  O   O109      1.0  0.9257481918809516  0.46037724166649013  0.208958153170154  1.0000
  O   O110      1.0  0.0742518301190504  0.5396227583335165  0.7910418468298457  1.0000
  O   O111      1.0  0.5742518081190484  0.5396227583335165  0.7089581531701542  1.0000
  O   O112      1.0  0.4257481628809454  0.46037724166649013  0.291041846829846  1.0000
  O   O113      1.0  0.21664611074474047  0.1364239283856217  0.6467112909154608  1.0000
  O   O114      1.0  0.7833539042552639  0.8635761006143844  0.35328870908453947  1.0000
  O   O115      1.0  0.2833539042552571  0.8635761006143844  0.14671129091546098  1.0000
  O   O116      1.0  0.7166460957447361  0.1364239283856217  0.853288709084539  1.0000
  O   O117      1.0  0.7833539042552639  0.6364238993856157  0.35328870908453947  1.0000
  O   O118      1.0  0.21664611074474047  0.3635760716143783  0.6467112909154608  1.0000
  O   O119      1.0  0.7166460957447361  0.3635760716143783  0.853288709084539  1.0000
  O   O120      1.0  0.2833539042552571  0.6364238993856157  0.14671129091546098  1.0000
  O   O121      1.0  0.4954235285324139  0.8539780119399587  0.7138123593843985  1.0000
  O   O122      1.0  0.504576471467586  0.146021988060041  0.2861876406156023  1.0000
  O   O123      1.0  0.0045764714675861  0.146021988060041  0.2138123593843979  1.0000
  O   O124      1.0  0.995423528532414  0.8539780119399587  0.7861876406156015  1.0000
  O   O125      1.0  0.504576471467586  0.3539780119399593  0.2861876406156023  1.0000
  O   O126      1.0  0.4954235285324139  0.6460219880600413  0.7138123593843985  1.0000
  O   O127      1.0  0.995423528532414  0.6460219880600413  0.7861876406156015  1.0000
  O   O128      1.0  0.0045764714675861  0.3539780119399593  0.2138123593843979  1.0000
  O   O129      1.0  0.3772823459626609  0.8327617578241844  0.785305948454428  1.0000
  O   O130      1.0  0.6227176540373386  0.1672382421758158  0.21469405154557208  1.0000
  O   O131      1.0  0.12271765403733889  0.1672382421758158  0.2853059484544277  1.0000
  O   O132      1.0  0.8772823459626615  0.8327617578241844  0.714694051545572  1.0000
  O   O133      1.0  0.6227176540373386  0.3327617578241838  0.21469405154557208  1.0000
  O   O134      1.0  0.3772823459626609  0.6672382421758156  0.785305948454428  1.0000
  O   O135      1.0  0.8772823459626615  0.6672382421758156  0.714694051545572  1.0000
  O   O136      1.0  0.12271765403733889  0.3327617578241838  0.2853059484544277  1.0000
  O   O137      1.0  0.4247563604116535  0.75  0.6469205084429087  1.0000
  O   O138      1.0  0.5752436395883461  0.25  0.35307949155709123  1.0000
  O   O139      1.0  0.0752436395883462  0.25  0.1469205084429087  1.0000
  O   O140      1.0  0.9247563604116538  0.75  0.8530794915570913  1.0000
  O   O141      1.0  0.3172301396751698  0.8647507879470026  0.9550259114253609  1.0000
  O   O142      1.0  0.6827698903248256  0.1352492120529975  0.0449740885746397  1.0000
  O   O143      1.0  0.1827698603248302  0.1352492120529975  0.4550259114253601  1.0000
  O   O144      1.0  0.8172301096751744  0.8647507879470026  0.5449740885746391  1.0000
  O   O145      1.0  0.6827698903248256  0.3647507879470024  0.0449740885746397  1.0000
  O   O146      1.0  0.3172301396751698  0.6352492120529974  0.9550259114253609  1.0000
  O   O147      1.0  0.8172301096751744  0.6352492120529974  0.5449740885746391  1.0000
  O   O148      1.0  0.1827698603248302  0.3647507879470024  0.4550259114253601  1.0000
  O   O149      1.0  0.2471127886613706  0.8462835433922562  0.7904681122964389  1.0000
  O   O150      1.0  0.7528872113386301  0.153716456607744  0.20953188770356088  1.0000
  O   O151      1.0  0.2528872113386297  0.153716456607744  0.2904681122964392  1.0000
  O   O152      1.0  0.7471127886613699  0.8462835433922562  0.709531887703561  1.0000
  O   O153      1.0  0.7528872113386301  0.3462835433922561  0.20953188770356088  1.0000
  O   O154      1.0  0.2471127886613706  0.6537164566077438  0.7904681122964389  1.0000
  O   O155      1.0  0.7471127886613699  0.6537164566077438  0.709531887703561  1.0000
  O   O156      1.0  0.2528872113386297  0.3462835433922561  0.2904681122964392  1.0000
  O   O157      1.0  0.2956949116610748  0.75  0.0498521138939791  1.0000
  O   O158      1.0  0.7043051183389206  0.25  0.9501478741060202  1.0000
  O   O159      1.0  0.20430508833892547  0.25  0.5498521258939798  1.0000
  O   O160      1.0  0.7956948816610794  0.75  0.45014787410601975  1.0000
  O   O161      1.0  0.1959035070047426  0.832282779471167  0.0066506553595783  1.0000
  O   O162      1.0  0.8040964929952577  0.16771722052883317  0.9933493546404223  1.0000
  O   O163      1.0  0.3040964929952577  0.16771722052883317  0.5066506453595777  1.0000
  O   O164      1.0  0.6959035070047423  0.832282779471167  0.4933493546404225  1.0000
  O   O165      1.0  0.8040964929952577  0.332282779471167  0.9933493546404223  1.0000
  O   O166      1.0  0.1959035070047426  0.667717220528833  0.0066506553595783  1.0000
  O   O167      1.0  0.6959035070047423  0.667717220528833  0.4933493546404225  1.0000
  O   O168      1.0  0.3040964929952577  0.332282779471167  0.5066506453595777  1.0000
  O   O169      1.0  0.092711647664231  0.75  0.0210740582310962  1.0000
  O   O170      1.0  0.9072883603357692  0.25  0.9789259387689069  1.0000
  O   O171      1.0  0.40728836033576976  0.25  0.5210740612310931  1.0000
  O   O172      1.0  0.5927116396642308  0.75  0.4789259387689068  1.0000
  O   O173      1.0  0.0807760444728059  0.8693979816198215  0.9344280414905904  1.0000
  O   O174      1.0  0.9192239415271931  0.1306020183801782  0.0655719585094021  1.0000
  O   O175      1.0  0.41922394152720005  0.1306020183801782  0.4344280414905978  1.0000
  O   O176      1.0  0.5807760584728069  0.8693979816198215  0.5655719585094096  1.0000
  O   O177      1.0  0.9192239415271931  0.36939798161982207  0.0655719585094021  1.0000
  O   O178      1.0  0.0807760444728059  0.6306020183801785  0.9344280414905904  1.0000
  O   O179      1.0  0.5807760584728069  0.6306020183801785  0.5655719585094096  1.0000
  O   O180      1.0  0.41922394152720005  0.36939798161982207  0.4344280414905978  1.0000
  O   O181      1.0  0.1209186973226777  0.8397127732037375  0.7472479971709871  1.0000
  O   O182      1.0  0.8790813246773239  0.1602872267962623  0.2527520028290131  1.0000
  O   O183      1.0  0.3790812946773285  0.1602872267962623  0.2472479971709871  1.0000
  O   O184      1.0  0.6209186753226761  0.8397127732037375  0.7527520028290129  1.0000
  O   O185      1.0  0.8790813246773239  0.3397127732037375  0.2527520028290131  1.0000
  O   O186      1.0  0.1209186973226777  0.6602872267962625  0.7472479971709871  1.0000
  O   O187      1.0  0.6209186753226761  0.6602872267962625  0.7527520028290129  1.0000
  O   O188      1.0  0.3790812946773285  0.3397127732037375  0.2472479971709871  1.0000
  O   O189      1.0  0.2024462590020709  0.75  0.6699079781998515  1.0000
  O   O190      1.0  0.7975537409979285  0.25  0.3300920218001485  1.0000
  O   O191      1.0  0.2975537409979295  0.25  0.16990797819985157  1.0000
  O   O192      1.0  0.7024462590020715  0.75  0.8300920218001483  1.0000
  Si  Si1       1.0  0.42413891608917603  0.0709164848411015  0.6883765811807435  1.0000
  Si  Si2       1.0  0.5758610839108239  0.9290835151588986  0.3116234188192563  1.0000
  Si  Si3       1.0  0.0758610839108241  0.9290835151588986  0.18837658118074377  1.0000
  Si  Si4       1.0  0.9241389160891761  0.0709164848411015  0.8116234188192563  1.0000
  Si  Si5       1.0  0.5758610839108239  0.5709164848411012  0.3116234188192563  1.0000
  Si  Si6       1.0  0.42413891608917603  0.4290835151588984  0.6883765811807435  1.0000
  Si  Si7       1.0  0.9241389160891761  0.4290835151588984  0.8116234188192563  1.0000
  Si  Si8       1.0  0.0758610839108241  0.5709164848411012  0.18837658118074377  1.0000
  Si  Si9       1.0  0.3225051893916686  0.03189393662834  0.8432921855093353  1.0000
  Si  Si10      1.0  0.6774948396083365  0.9681060893716615  0.1567078144906645  1.0000
  Si  Si11      1.0  0.177494810608331  0.9681060893716615  0.3432921855093357  1.0000
  Si  Si12      1.0  0.8225051603916634  0.03189393662834  0.6567078144906647  1.0000
  Si  Si13      1.0  0.6774948396083365  0.5318939106283385  0.1567078144906645  1.0000
  Si  Si14      1.0  0.3225051893916686  0.468106059371667  0.8432921855093353  1.0000
  Si  Si15      1.0  0.8225051603916634  0.468106059371667  0.6567078144906647  1.0000
  Si  Si16      1.0  0.177494810608331  0.5318939106283385  0.3432921855093357  1.0000
  Si  Si17      1.0  0.2779551204219747  0.05154486052880399  0.061265345322299096  1.0000
  Si  Si18      1.0  0.7220449095780278  0.9484551244711984  0.9387346326776992  1.0000
  Si  Si19      1.0  0.2220448795780252  0.9484551244711984  0.5612653673223007  1.0000
  Si  Si20      1.0  0.7779550904219722  0.05154486052880399  0.4387346626776941  1.0000
  Si  Si21      1.0  0.7220449095780278  0.5515448755288016  0.9387346326776992  1.0000
  Si  Si22      1.0  0.2779551204219747  0.44845512447119845  0.061265345322299096  1.0000
  Si  Si23      1.0  0.7779550904219722  0.44845512447119845  0.4387346626776941  1.0000
  Si  Si24      1.0  0.2220448795780252  0.5515448755288016  0.5612653673223007  1.0000
  Si  Si25      1.0  0.1225607889289412  0.05283200543895251  0.04788468912137049  1.0000
  Si  Si26      1.0  0.8774392190710595  0.9471679865610465  0.9521153138786261  1.0000
  Si  Si27      1.0  0.3774392190710595  0.9471679865610465  0.5478846861213738  1.0000
  Si  Si28      1.0  0.6225607809289405  0.05283200543895251  0.4521153138786264  1.0000
  Si  Si29      1.0  0.8774392190710595  0.5528320134389534  0.9521153138786261  1.0000
  Si  Si30      1.0  0.1225607889289412  0.4471679865610467  0.04788468912137049  1.0000
  Si  Si31      1.0  0.6225607809289405  0.4471679865610467  0.4521153138786264  1.0000
  Si  Si32      1.0  0.3774392190710595  0.5528320134389534  0.5478846861213738  1.0000
  Si  Si33      1.0  0.0723881081616445  0.0392303086873055  0.8234166293023887  1.0000
  Si  Si34      1.0  0.9276119068383604  0.9607696763127033  0.1765833706976185  1.0000
  Si  Si35      1.0  0.4276119068383603  0.9607696763127033  0.3234166293023812  1.0000
  Si  Si36      1.0  0.5723880931616395  0.0392303086873055  0.6765833706976111  1.0000
  Si  Si37      1.0  0.9276119068383604  0.5392303236872966  0.1765833706976185  1.0000
  Si  Si38      1.0  0.0723881081616445  0.4607696763126969  0.8234166293023887  1.0000
  Si  Si39      1.0  0.5723880931616395  0.4607696763126969  0.6765833706976111  1.0000
  Si  Si40      1.0  0.4276119068383603  0.5392303236872966  0.3234166293023812  1.0000
  Si  Si41      1.0  0.2011588795662188  0.0707089715633584  0.7138213283098728  1.0000
  Si  Si42      1.0  0.7988411054337767  0.9292910134366444  0.2861786716901275  1.0000
  Si  Si43      1.0  0.2988411054337763  0.9292910134366444  0.21382132830987266  1.0000
  Si  Si44      1.0  0.7011588945662233  0.0707089715633584  0.7861786716901272  1.0000
  Si  Si45      1.0  0.7988411054337767  0.5707089865633557  0.2861786716901275  1.0000
  Si  Si46      1.0  0.2011588795662188  0.42929101343664416  0.7138213283098728  1.0000
  Si  Si47      1.0  0.7011588945662233  0.42929101343664416  0.7861786716901272  1.0000
  Si  Si48      1.0  0.2988411054337763  0.5707089865633557  0.21382132830987266  1.0000
  Si  Si49      1.0  0.42228046607612185  0.8277330678993648  0.684802104591557  1.0000
  Si  Si50      1.0  0.5777195339238775  0.1722669321006423  0.3151978954084431  1.0000
  Si  Si51      1.0  0.0777195339238783  0.1722669321006423  0.184802104591564  1.0000
  Si  Si52      1.0  0.9222804660761224  0.8277330678993648  0.815197895408443  1.0000
  Si  Si53      1.0  0.5777195339238775  0.3277330678993579  0.3151978954084431  1.0000
  Si  Si54      1.0  0.42228046607612185  0.672266932100635  0.684802104591557  1.0000
  Si  Si55      1.0  0.9222804660761224  0.672266932100635  0.815197895408443  1.0000
  Si  Si56      1.0  0.0777195339238783  0.3277330678993579  0.184802104591564  1.0000
  Si  Si57      1.0  0.3164579390614375  0.8741076195550936  0.8343088948441884  1.0000
  Si  Si58      1.0  0.6835420909385643  0.1258923804449132  0.1656911051558117  1.0000
  Si  Si59      1.0  0.1835420609385623  0.1258923804449132  0.33430889484418824  1.0000
  Si  Si60      1.0  0.8164579090614357  0.8741076195550936  0.6656911051558115  1.0000
  Si  Si61      1.0  0.6835420909385643  0.374107619555094  0.1656911051558117  1.0000
  Si  Si62      1.0  0.3164579390614375  0.6258923804449062  0.8343088948441884  1.0000
  Si  Si63      1.0  0.8164579090614357  0.6258923804449062  0.6656911051558115  1.0000
  Si  Si64      1.0  0.1835420609385623  0.374107619555094  0.33430889484418824  1.0000
  Si  Si65      1.0  0.2726851348598581  0.8276345761264892  0.039779822629361694  1.0000
  Si  Si66      1.0  0.7273148651401418  0.1723654238735105  0.9602201813706387  1.0000
  Si  Si67      1.0  0.2273148651401421  0.1723654238735105  0.5397798186293613  1.0000
  Si  Si68      1.0  0.7726851348598581  0.8276345761264892  0.4602201813706385  1.0000
  Si  Si69      1.0  0.7273148651401418  0.3276345761264893  0.9602201813706387  1.0000
  Si  Si70      1.0  0.2726851348598581  0.6723654238735107  0.039779822629361694  1.0000
  Si  Si71      1.0  0.7726851348598581  0.6723654238735107  0.4602201813706385  1.0000
  Si  Si72      1.0  0.2273148651401421  0.3276345761264893  0.5397798186293613  1.0000
  Si  Si73      1.0  0.11694363282336992  0.8279101248594912  0.0234567745910822  1.0000
  Si  Si74      1.0  0.8830563751766308  0.1720898751405093  0.9765432294089179  1.0000
  Si  Si75      1.0  0.383056375176631  0.1720898751405093  0.5234567705910821  1.0000
  Si  Si76      1.0  0.6169436248233692  0.8279101248594912  0.4765432294089182  1.0000
  Si  Si77      1.0  0.8830563751766308  0.3279101248594906  0.9765432294089179  1.0000
  Si  Si78      1.0  0.11694363282336992  0.6720898751405088  0.0234567745910822  1.0000
  Si  Si79      1.0  0.6169436248233692  0.6720898751405088  0.4765432294089182  1.0000
  Si  Si80      1.0  0.383056375176631  0.3279101248594906  0.5234567705910821  1.0000
  Si  Si81      1.0  0.0682601015649928  0.8806447193320436  0.8152558155546775  1.0000
  Si  Si82      1.0  0.9317399054350044  0.1193552806679563  0.18474418444532217  1.0000
  Si  Si83      1.0  0.4317399054350042  0.1193552806679563  0.3152558155546776  1.0000
  Si  Si84      1.0  0.5682600945649955  0.8806447193320436  0.6847441844453224  1.0000
  Si  Si85      1.0  0.9317399054350044  0.3806447193320438  0.18474418444532217  1.0000
  Si  Si86      1.0  0.0682601015649928  0.6193552806679563  0.8152558155546775  1.0000
  Si  Si87      1.0  0.5682600945649955  0.6193552806679563  0.6847441844453224  1.0000
  Si  Si88      1.0  0.4317399054350042  0.3806447193320438  0.3152558155546776  1.0000
  Si  Si89      1.0  0.1945267668122701  0.8280480875564428  0.7029699076601187  1.0000
  Si  Si90      1.0  0.8054732331877295  0.1719519124435569  0.29703009233988076  1.0000
  Si  Si91      1.0  0.30547323318773  0.1719519124435569  0.202969907660119  1.0000
  Si  Si92      1.0  0.6945267668122707  0.8280480875564428  0.7970300923398812  1.0000
  Si  Si93      1.0  0.8054732331877295  0.3280480875564434  0.29703009233988076  1.0000
  Si  Si94      1.0  0.1945267668122701  0.6719519124435571  0.7029699076601187  1.0000
  Si  Si95      1.0  0.6945267668122707  0.6719519124435571  0.7970300923398812  1.0000
  Si  Si96      1.0  0.30547323318773  0.3280480875564434  0.202969907660119  1.0000
