data_image0
_chemical_formula_structural       O192Si95Sn
_chemical_formula_sum              "O192 Si95 Sn1"
_cell_length_a       20.357025794149273
_cell_length_b       19.844279619366816
_cell_length_c       13.360174416433122
_cell_angle_alpha    89.91898129590565
_cell_angle_beta     90.06502342566684
_cell_angle_gamma    90.02432494906348

_space_group_name_H-M_alt    "P 1"
_space_group_IT_number       1

loop_
  _space_group_symop_operation_xyz
  'x, y, z'

loop_
  _atom_site_type_symbol
  _atom_site_label
  _atom_site_symmetry_multiplicity
  _atom_site_fract_x
  _atom_site_fract_y
  _atom_site_fract_z
  _atom_site_occupancy
  O   O1        1.0  0.5034598387121687  0.0731216113316709  0.7064567570717769  1.0000
  O   O2        1.0  0.4967737801462093  0.927440895180562  0.2911566049752157  1.0000
  O   O3        1.0  0.9975950762231557  0.9273542976441971  0.2086528679620807  1.0000
  O   O4        1.0  0.0033782258298466995  0.069263377943191  0.7870508140294473  1.0000
  O   O5        1.0  0.49632963903465704  0.5729989366243707  0.2979968608314815  1.0000
  O   O6        1.0  0.4903589532280189  0.4257637289619949  0.743498734133537  1.0000
  O   O7        1.0  0.9967896673652628  0.42946508412753254  0.8002447382584961  1.0000
  O   O8        1.0  0.99370406793495  0.5756576387759816  0.2093965338371555  1.0000
  O   O9        1.0  0.3886372135896064  0.06587406700393049  0.7971562057588918  1.0000
  O   O10       1.0  0.6124006067238364  0.9346488475164785  0.2030814043355061  1.0000
  O   O11       1.0  0.1131463835730014  0.932506931918054  0.2967384561065102  1.0000
  O   O12       1.0  0.8870473074090256  0.0688847706904979  0.7011453497286189  1.0000
  O   O13       1.0  0.6083832207963561  0.5671696845172786  0.20062899816892493  1.0000
  O   O14       1.0  0.3664129406190711  0.4235191888375587  0.7905843270624033  1.0000
  O   O15       1.0  0.8833449948734172  0.4297404986852516  0.7065560503759882  1.0000
  O   O16       1.0  0.1095149079341458  0.5631456197009622  0.2952505365140248  1.0000
  O   O17       1.0  0.40126916792565226  0.13839974807880986  0.6321122669078385  1.0000
  O   O18       1.0  0.5980012506919313  0.8620159967347544  0.3680942188030276  1.0000
  O   O19       1.0  0.0981494071527607  0.8604729115775293  0.1324958108980878  1.0000
  O   O20       1.0  0.9056899634049065  0.13855214353405423  0.866349542404079  1.0000
  O   O21       1.0  0.599783971966236  0.6398036483147979  0.3649303787660962  1.0000
  O   O22       1.0  0.4059724588045167  0.3597884324336532  0.6286991612503411  1.0000
  O   O23       1.0  0.8988585584606855  0.35823544359633847  0.8726407757306253  1.0000
  O   O24       1.0  0.0978069564173524  0.6362414656864079  0.1313202452506624  1.0000
  O   O25       1.0  0.4066094913149099  0.0040572878220743  0.6220703824809188  1.0000
  O   O26       1.0  0.5928651248856704  0.9963816794050996  0.3772918929389271  1.0000
  O   O27       1.0  0.0949460512820299  0.9950465441191281  0.1221621095921603  1.0000
  O   O28       1.0  0.9049783639296552  0.004169185530554  0.8745086666576415  1.0000
  O   O29       1.0  0.5972752308224037  0.5056752758979431  0.3771105734232252  1.0000
  O   O30       1.0  0.40611857204701163  0.49478305674277284  0.6307937763342332  1.0000
  O   O31       1.0  0.8943288309812712  0.4923513177314033  0.881553474347027  1.0000
  O   O32       1.0  0.0840635099374474  0.5025606245762689  0.1193370240672647  1.0000
  O   O33       1.0  0.32267506111409  0.03786059834668219  0.9631336847840836  1.0000
  O   O34       1.0  0.6770372592671909  0.9624242907419601  0.0361533316466596  1.0000
  O   O35       1.0  0.1768136570285884  0.9619392494747625  0.4640001019217232  1.0000
  O   O36       1.0  0.8236937087186238  0.0392258735896329  0.5338683592448761  1.0000
  O   O37       1.0  0.6735879286520117  0.5409628846095742  0.03512720760485  1.0000
  O   O38       1.0  0.3166459800130174  0.46310780988664035  0.9644742292255374  1.0000
  O   O39       1.0  0.823782718352019  0.46406136902120226  0.5360176769214536  1.0000
  O   O40       1.0  0.17770227937722527  0.5403010466512602  0.4609214883685178  1.0000
  O   O41       1.0  0.3195349998573313  0.953796007846935  0.8046303023525436  1.0000
  O   O42       1.0  0.6828860868001735  0.0465558059413278  0.1927462375059854  1.0000
  O   O43       1.0  0.1790924101239262  0.0463901971625477  0.30727522541451796  1.0000
  O   O44       1.0  0.8219576205178166  0.9549958523219796  0.6917155039032975  1.0000
  O   O45       1.0  0.6760945436525901  0.45440404473925805  0.19022838530263086  1.0000
  O   O46       1.0  0.3170345897474347  0.5456198518744698  0.8053310926356602  1.0000
  O   O47       1.0  0.8241418199615997  0.5471915130286461  0.6947134173803927  1.0000
  O   O48       1.0  0.1821488844754772  0.45395215634577035  0.30532624143083004  1.0000
  O   O49       1.0  0.2574150612626123  0.0703373428150791  0.8001932021105055  1.0000
  O   O50       1.0  0.7434513696846339  0.9293848734572278  0.1985695417506395  1.0000
  O   O51       1.0  0.2444371268271681  0.9313299456354509  0.3022740752511379  1.0000
  O   O52       1.0  0.7554615159270646  0.0691746717545017  0.6953013280051987  1.0000
  O   O53       1.0  0.739688209397208  0.5701642623371629  0.1995618229472303  1.0000
  O   O54       1.0  0.23837354588422818  0.43855959574906594  0.8117345766168309  1.0000
  O   O55       1.0  0.7525809058602624  0.4356036984862222  0.6938706752626523  1.0000
  O   O56       1.0  0.2403667734117981  0.5727236909894247  0.2959882283410426  1.0000
  O   O57       1.0  0.2915289557439828  0.12575720887001507  0.10407441032143902  1.0000
  O   O58       1.0  0.7098837161420574  0.876083692948185  0.8951920701643336  1.0000
  O   O59       1.0  0.20684735745994898  0.875636716032699  0.6066387756005645  1.0000
  O   O60       1.0  0.7919662531616752  0.1249633386937008  0.3907761249416061  1.0000
  O   O61       1.0  0.6987382994036548  0.6249362185850236  0.8877335264185068  1.0000
  O   O62       1.0  0.2894506824072097  0.37508115727183056  0.1068139904397981  1.0000
  O   O63       1.0  0.7942545165243327  0.3748592115096527  0.39709191846596614  1.0000
  O   O64       1.0  0.21184226383964078  0.6263909363319652  0.6031594791839133  1.0000
  O   O65       1.0  0.1993753419107004  0.044421372785663  0.0277169429928068  1.0000
  O   O66       1.0  0.8007558299246185  0.9580455324635054  0.9731445360991225  1.0000
  O   O67       1.0  0.2993850753965485  0.9573696690202381  0.5317584190764169  1.0000
  O   O68       1.0  0.7011412379291458  0.0417603005541725  0.4661762517585494  1.0000
  O   O69       1.0  0.7963679937932321  0.5546748557540168  0.9733779610177398  1.0000
  O   O70       1.0  0.1973505759608815  0.4613515742676219  0.044163943823980104  1.0000
  O   O71       1.0  0.7001185938679284  0.45494522459666703  0.4739367655492933  1.0000
  O   O72       1.0  0.3000674876782798  0.5391113744191502  0.532671578970686  1.0000
  O   O73       1.0  0.2939992137582754  0.9958304590445193  0.1453151619108376  1.0000
  O   O74       1.0  0.7066472905805037  0.006016586885917  0.8546246904631354  1.0000
  O   O75       1.0  0.20342607963591544  0.005809571649715801  0.6459717649236425  1.0000
  O   O76       1.0  0.7978027189631044  0.9945302505109215  0.3520511893484854  1.0000
  O   O77       1.0  0.708093830933791  0.4933689571297142  0.8585536584144104  1.0000
  O   O78       1.0  0.2996019694666854  0.5047502576893141  0.1496092432028909  1.0000
  O   O79       1.0  0.7923149264867446  0.5042845747124592  0.35324256219231226  1.0000
  O   O80       1.0  0.19934051550846726  0.49683185283564385  0.6435483428389901  1.0000
  O   O81       1.0  0.1081373110900589  0.12781568603348492  0.0987268706303098  1.0000
  O   O82       1.0  0.8908525219168819  0.87272471638353  0.9036936094103272  1.0000
  O   O83       1.0  0.391216903824503  0.8722372750859034  0.5967272579729849  1.0000
  O   O84       1.0  0.6106206109261817  0.12791497415217204  0.3994311044726458  1.0000
  O   O85       1.0  0.8943270755983833  0.62681075801411  0.8990159402227581  1.0000
  O   O86       1.0  0.10598606969567399  0.37182256768953914  0.098546815800462  1.0000
  O   O87       1.0  0.6156954084375833  0.37250580789780213  0.3866290354235349  1.0000
  O   O88       1.0  0.3912701856414663  0.6259644130206432  0.596815506442377  1.0000
  O   O89       1.0  0.0804740550815385  0.0498582569434397  0.9447313223980066  1.0000
  O   O90       1.0  0.9196087480286596  0.9535188479365952  0.05486482303200651  1.0000
  O   O91       1.0  0.41586416577382795  0.951545375055209  0.4424530933531715  1.0000
  O   O92       1.0  0.5850307987170883  0.05008050727878251  0.5557962984546577  1.0000
  O   O93       1.0  0.9155295497452542  0.549211946524339  0.05531682527145201  1.0000
  O   O94       1.0  0.0876957531469761  0.44813744067711486  0.9392252154289357  1.0000
  O   O95       1.0  0.5766776333930137  0.4391343353379589  0.5447744368053744  1.0000
  O   O96       1.0  0.4185081711216883  0.5417160462360922  0.4494253263678206  1.0000
  O   O97       1.0  0.1300605698390891  0.0807920670283034  0.7663629344138789  1.0000
  O   O98       1.0  0.8707121758873397  0.9180093873774225  0.2324396140139409  1.0000
  O   O99       1.0  0.3706670492512097  0.9201390299686266  0.2611658374900125  1.0000
  O   O100      1.0  0.6293385585239727  0.0795812858466536  0.7378736302523642  1.0000
  O   O101      1.0  0.8670980887395413  0.5790016867558394  0.2344498774509071  1.0000
  O   O102      1.0  0.1186178048243643  0.41840780429261865  0.7490490977196168  1.0000
  O   O103      1.0  0.6357722257120016  0.4008858953408044  0.7624776679730085  1.0000
  O   O104      1.0  0.36921757574403663  0.5798629182039475  0.2742635014530252  1.0000
  O   O105      1.0  0.0788801222606037  0.9602101694438484  0.7962458028004561  1.0000
  O   O106      1.0  0.9240322652368776  0.038136843194199105  0.2101735869135476  1.0000
  O   O107      1.0  0.4246878944722959  0.039264169313697306  0.2914912926190329  1.0000
  O   O108      1.0  0.5743822237302433  0.9607076377899058  0.7049813084066291  1.0000
  O   O109      1.0  0.9251301247110268  0.46134400717210017  0.2054586622997662  1.0000
  O   O110      1.0  0.0721402320902155  0.5387340034709492  0.7939985626951537  1.0000
  O   O111      1.0  0.589014777375521  0.5488547222487047  0.7201068324985515  1.0000
  O   O112      1.0  0.42588762164213645  0.46030899612830456  0.2913446801932746  1.0000
  O   O113      1.0  0.21392781927430446  0.14015195852399642  0.6480387144865164  1.0000
  O   O114      1.0  0.7862797921746879  0.8602078781897454  0.3517812551811034  1.0000
  O   O115      1.0  0.2836763784142431  0.8614767440335983  0.1467947996231173  1.0000
  O   O116      1.0  0.7170979297105912  0.14014227126088694  0.8498612362211017  1.0000
  O   O117      1.0  0.783737556101805  0.6388658215240207  0.3527125277058374  1.0000
  O   O118      1.0  0.2173084202980504  0.36390098625607004  0.6496894534365991  1.0000
  O   O119      1.0  0.7415613962133734  0.3631166001995281  0.8586160569735508  1.0000
  O   O120      1.0  0.2912413450724109  0.6397113668406104  0.146870524628141  1.0000
  O   O121      1.0  0.4972247804544598  0.852627990971686  0.7128946784635036  1.0000
  O   O122      1.0  0.5022083064120223  0.14643657358019851  0.2880214755965725  1.0000
  O   O123      1.0  0.0022308769936767  0.1447646176376541  0.21522824342655564  1.0000
  O   O124      1.0  0.9961178689840283  0.8569345719721992  0.7851255891350958  1.0000
  O   O125      1.0  0.5037959781086109  0.3537316432979494  0.2837578786818443  1.0000
  O   O126      1.0  0.49834528849851767  0.6463440007637046  0.7107029894252997  1.0000
  O   O127      1.0  0.9996812840784894  0.6492590602647157  0.7843789022712983  1.0000
  O   O128      1.0  0.0039331261755136  0.3552079488667486  0.22471070473207402  1.0000
  O   O129      1.0  0.3797831967712423  0.8355356977720583  0.788411405840752  1.0000
  O   O130      1.0  0.6175383188287299  0.16139354411887114  0.205260008114309  1.0000
  O   O131      1.0  0.11957434081462559  0.16473176740654158  0.2898599847975237  1.0000
  O   O132      1.0  0.8787254422090467  0.83549825344644  0.7122865279283558  1.0000
  O   O133      1.0  0.6177793800651661  0.33398928247094645  0.1973880553850922  1.0000
  O   O134      1.0  0.3821886006767899  0.661259717131858  0.7886666989346792  1.0000
  O   O135      1.0  0.882002508723636  0.6665209221034107  0.709046556951954  1.0000
  O   O136      1.0  0.1230071320482276  0.3347542011714129  0.2895318743727439  1.0000
  O   O137      1.0  0.4233936982554409  0.7492867115415996  0.6515272983741728  1.0000
  O   O138      1.0  0.5775382931130083  0.2498224782821419  0.34128321007247003  1.0000
  O   O139      1.0  0.0727015942972374  0.2501922536798308  0.15494828582256087  1.0000
  O   O140      1.0  0.9261779245905102  0.7509722335390343  0.8484609031677545  1.0000
  O   O141      1.0  0.3160063607327794  0.8676168333334577  0.9546573945018697  1.0000
  O   O142      1.0  0.6861486492910011  0.13344858419881006  0.0417596597572729  1.0000
  O   O143      1.0  0.1834177254928995  0.13483704371177013  0.4556134906235075  1.0000
  O   O144      1.0  0.8168790942894703  0.8670394942075514  0.5439816079111716  1.0000
  O   O145      1.0  0.6902742630101824  0.3687802101749594  0.041573645706960594  1.0000
  O   O146      1.0  0.3173832905638134  0.6333950613640027  0.9540742782986674  1.0000
  O   O147      1.0  0.8166795761179935  0.6327499415887038  0.5445493789194107  1.0000
  O   O148      1.0  0.1850585575350758  0.3687837903139948  0.45695956550502165  1.0000
  O   O149      1.0  0.2493958940871594  0.8416187166613903  0.7886402325471653  1.0000
  O   O150      1.0  0.7481400551277531  0.16158377889634967  0.2103092248447664  1.0000
  O   O151      1.0  0.2500563752777297  0.15717313255452223  0.2882944908249306  1.0000
  O   O152      1.0  0.7483956535776789  0.8458105336296411  0.709081841831762  1.0000
  O   O153      1.0  0.7472093218951299  0.34410943415185247  0.21688973687358923  1.0000
  O   O154      1.0  0.2517878400217154  0.6606058202591796  0.7872945275927259  1.0000
  O   O155      1.0  0.7519977829739788  0.6579190634573027  0.7125714607934064  1.0000
  O   O156      1.0  0.253007010826626  0.3422985711475352  0.2926912623714814  1.0000
  O   O157      1.0  0.2959973074916721  0.7506156486425224  0.0423209457402467  1.0000
  O   O158      1.0  0.7086312883467927  0.2511735393644065  0.954274412508166  1.0000
  O   O159      1.0  0.2035632725347587  0.2518085639263135  0.5465604399948348  1.0000
  O   O160      1.0  0.7966996132063565  0.7496647096045455  0.4566675784662885  1.0000
  O   O161      1.0  0.1954850064534408  0.8335905936604602  0.006425557881757901  1.0000
  O   O162      1.0  0.8073554293935788  0.16656090080156052  0.9891060303261585  1.0000
  O   O163      1.0  0.3032982915591235  0.168426278597741  0.5090978100785273  1.0000
  O   O164      1.0  0.6965331726112117  0.83281895693306  0.4903909880941728  1.0000
  O   O165      1.0  0.8113313377158446  0.32493769057027677  0.013440887845044202  1.0000
  O   O166      1.0  0.1975528995690597  0.664739550964367  0.011773495929810801  1.0000
  O   O167      1.0  0.6960050121759368  0.6672167983114144  0.4933853192271295  1.0000
  O   O168      1.0  0.3048967759543699  0.3328825944178448  0.5102383923732052  1.0000
  O   O169      1.0  0.0952399542178827  0.7484621097280363  0.025830855696509  1.0000
  O   O170      1.0  0.9136495136077805  0.24675213521173703  0.9794712166508918  1.0000
  O   O171      1.0  0.4072992694755602  0.24898363294462114  0.5210230244411305  1.0000
  O   O172      1.0  0.5937458310258172  0.7500257569533737  0.4752865526315202  1.0000
  O   O173      1.0  0.0787234079481306  0.8667262297416728  0.9370134210900493  1.0000
  O   O174      1.0  0.9206996326237084  0.125924176407804  0.06256078827435782  1.0000
  O   O175      1.0  0.4171381980575021  0.1289886773912141  0.4359337354059511  1.0000
  O   O176      1.0  0.5820699886631262  0.8683258020222236  0.5648050140240045  1.0000
  O   O177      1.0  0.9288558120639498  0.36688794895404025  0.0654436079835151  1.0000
  O   O178      1.0  0.0832123340706806  0.6306367158546438  0.9346052150076499  1.0000
  O   O179      1.0  0.5797907646275051  0.6293446571555416  0.5597074319650513  1.0000
  O   O180      1.0  0.4189476606726553  0.3678420885650801  0.43262294478056057  1.0000
  O   O181      1.0  0.122040782943005  0.8387924134205871  0.7514865083886417  1.0000
  O   O182      1.0  0.8758891089401104  0.1598532551187521  0.24480566787712044  1.0000
  O   O183      1.0  0.3768476774961195  0.15983989120715164  0.24932202793695232  1.0000
  O   O184      1.0  0.6226895481435202  0.8413265475122053  0.7532347584424637  1.0000
  O   O185      1.0  0.8758155611607708  0.3417545991947421  0.24639215493850078  1.0000
  O   O186      1.0  0.1252016522582583  0.6563810357263014  0.7476008545426767  1.0000
  O   O187      1.0  0.6241020869408929  0.6744856082241074  0.7369626704219236  1.0000
  O   O188      1.0  0.37862284950532  0.3399894875609629  0.2456430391623417  1.0000
  O   O189      1.0  0.1994318228604985  0.7504393623528004  0.6641618935003669  1.0000
  O   O190      1.0  0.8010448178597559  0.25067776805762065  0.33364508513583657  1.0000
  O   O191      1.0  0.2985489054457707  0.2501074371087808  0.1660231714194333  1.0000
  O   O192      1.0  0.7051072727799366  0.7522218890611903  0.8346445130075816  1.0000
  Si  Si1       1.0  0.42488010996248693  0.0699533210776782  0.6886429026104062  1.0000
  Si  Si2       1.0  0.575194841467208  0.9303967233360133  0.3107625136456657  1.0000
  Si  Si3       1.0  0.0759939621734146  0.9292971921746486  0.1888928501482107  1.0000
  Si  Si4       1.0  0.92515224981289  0.0696267267733857  0.8082419635709803  1.0000
  Si  Si5       1.0  0.5752921152395708  0.5707530743480143  0.31130116748499054  1.0000
  Si  Si6       1.0  0.4167791697685298  0.42649817884285673  0.6966934673137467  1.0000
  Si  Si7       1.0  0.918372400283284  0.42802920316290405  0.8162171672366825  1.0000
  Si  Si8       1.0  0.0717652309553777  0.5689869441048199  0.1880668712826376  1.0000
  Si  Si9       1.0  0.3221397299678184  0.0318727218705389  0.84208297113055  1.0000
  Si  Si10      1.0  0.6787836666776224  0.968166440581289  0.1571364549145802  1.0000
  Si  Si11      1.0  0.1784077227901216  0.9679585877614476  0.3430927561023084  1.0000
  Si  Si12      1.0  0.8219273868059205  0.03317840122441311  0.6548078956041173  1.0000
  Si  Si13      1.0  0.6746791915590874  0.5331425779647049  0.1557744609012967  1.0000
  Si  Si14      1.0  0.3097975468800001  0.46804017694210287  0.843992791021851  1.0000
  Si  Si15      1.0  0.8212933931604541  0.4692476196066668  0.6570161993714558  1.0000
  Si  Si16      1.0  0.1774479298433772  0.5324936080106915  0.3402446423848853  1.0000
  Si  Si17      1.0  0.2763633850332183  0.05110347351944031  0.0601965929801392  1.0000
  Si  Si18      1.0  0.724056254809034  0.950621176189121  0.9395571761869049  1.0000
  Si  Si19      1.0  0.2222601039971744  0.9501238020145722  0.5624692624514869  1.0000
  Si  Si20      1.0  0.778141686823937  0.050213336480704814  0.4352545385322041  1.0000
  Si  Si21      1.0  0.7197648165129301  0.5536332887639158  0.9379317638916849  1.0000
  Si  Si22      1.0  0.2751284690345749  0.4508570276580909  0.0666496883429944  1.0000
  Si  Si23      1.0  0.7769479350924328  0.44932713692308185  0.4397348890146797  1.0000
  Si  Si24      1.0  0.222785448419701  0.5508045832529702  0.5600563728705015  1.0000
  Si  Si25      1.0  0.1211837599756453  0.05431020056230911  0.0486674495558153  1.0000
  Si  Si26      1.0  0.8786652944891762  0.9470498119154418  0.9513878548859062  1.0000
  Si  Si27      1.0  0.3778143869393174  0.9462703524832243  0.5484407011324198  1.0000
  Si  Si28      1.0  0.6229351153286465  0.054171600229599895  0.449572471988572  1.0000
  Si  Si29      1.0  0.8748576196192509  0.5558001515835916  0.9516810816638087  1.0000
  Si  Si30      1.0  0.1191469982034859  0.44584188965351473  0.0501618709501934  1.0000
  Si  Si31      1.0  0.6228602164483615  0.44358068578999443  0.4459801704215382  1.0000
  Si  Si32      1.0  0.3782120205191094  0.5507089896132793  0.5527325079416382  1.0000
  Si  Si33      1.0  0.0731947261228285  0.0395636304483001  0.824708205914705  1.0000
  Si  Si34      1.0  0.9278674153393737  0.9597516485510512  0.1754297333625115  1.0000
  Si  Si35      1.0  0.4269492474412604  0.9601755854420144  0.3228337757914146  1.0000
  Si  Si36      1.0  0.5732284869496067  0.0400838439231784  0.6750386229564904  1.0000
  Si  Si37      1.0  0.9252644931656143  0.540657184937423  0.1751944079711752  1.0000
  Si  Si38      1.0  0.0690191711153885  0.45922823482341313  0.8224651921646559  1.0000
  Si  Si39      1.0  0.4273919118670824  0.5381237086195952  0.3289265860836312  1.0000
  Si  Si40      1.0  0.20125563720375683  0.0732274487558709  0.7141458226550524  1.0000
  Si  Si41      1.0  0.7995638657614891  0.9265888014072875  0.2847710018659858  1.0000
  Si  Si42      1.0  0.2981960510492547  0.928038325612345  0.2128103445670714  1.0000
  Si  Si43      1.0  0.7021409619802933  0.072931510275677  0.7853605518506417  1.0000
  Si  Si44      1.0  0.7956369177847972  0.5721919883719819  0.2859164920356124  1.0000
  Si  Si45      1.0  0.1935766661541074  0.42951801882083585  0.7117908108909325  1.0000
  Si  Si46      1.0  0.7094117321329803  0.4239977700084456  0.7946064990225393  1.0000
  Si  Si47      1.0  0.29999270914823756  0.5733171624263741  0.21560883918149842  1.0000
  Si  Si48      1.0  0.42328501190535317  0.8276792398101717  0.6868630112962099  1.0000
  Si  Si49      1.0  0.5767776368627183  0.17098118088947256  0.3090857814212932  1.0000
  Si  Si50      1.0  0.0754016665067921  0.1716060616792521  0.1889097872413649  1.0000
  Si  Si51      1.0  0.9233486061990045  0.8292870261693805  0.8129783908508939  1.0000
  Si  Si52      1.0  0.5779658498035559  0.3274397650338051  0.30285369940122403  1.0000
  Si  Si53      1.0  0.4241372848133918  0.670749615324045  0.6861160320610221  1.0000
  Si  Si54      1.0  0.9256484616938032  0.6731462079966165  0.8107267963904039  1.0000
  Si  Si55      1.0  0.0760521827153171  0.3282166995978364  0.1913242110852637  1.0000
  Si  Si56      1.0  0.3162754359162224  0.8743695471131435  0.8335327847126671  1.0000
  Si  Si57      1.0  0.6835906023104885  0.1258933710288123  0.1627683689910079  1.0000
  Si  Si58      1.0  0.1830900654861463  0.1258301663774119  0.3348840649097228  1.0000
  Si  Si59      1.0  0.8166759147571442  0.8755358350424327  0.6647914135104486  1.0000
  Si  Si60      1.0  0.6828714845584043  0.37522778827358133  0.1623573990588195  1.0000
  Si  Si61      1.0  0.3170675047675499  0.6253205729855588  0.8333686763448389  1.0000
  Si  Si62      1.0  0.8186349492331233  0.626423337775604  0.6656301021253485  1.0000
  Si  Si63      1.0  0.1854882753882343  0.37475173926060273  0.3355795512003543  1.0000
  Si  Si64      1.0  0.2723346281199645  0.8282196488761954  0.0380728614110087  1.0000
  Si  Si65      1.0  0.7303218832038799  0.1727196205009097  0.9586197912995542  1.0000
  Si  Si66      1.0  0.2264688963035743  0.1739041377711745  0.5400403957415567  1.0000
  Si  Si67      1.0  0.7735578190652015  0.827438614302994  0.4604299267223479  1.0000
  Si  Si68      1.0  0.737664830588095  0.3266171734312311  0.9667283526650033  1.0000
  Si  Si69      1.0  0.2748965223292278  0.6722079298190081  0.03912115654630349  1.0000
  Si  Si70      1.0  0.7727846618348723  0.6721426726157195  0.4613781064027777  1.0000
  Si  Si71      1.0  0.2280090892439549  0.3292458258165991  0.5413443692137422  1.0000
  Si  Si72      1.0  0.11710159125075048  0.827070384559319  0.025770232678000302  1.0000
  Si  Si73      1.0  0.8864118556564764  0.1698213467257089  0.9741767000903347  1.0000
  Si  Si74      1.0  0.3821384619984381  0.1713738891852097  0.5249287959813055  1.0000
  Si  Si75      1.0  0.6177622206654383  0.8280741607139804  0.4744198949472367  1.0000
  Si  Si76      1.0  0.8884212046645829  0.32435708406353425  0.98188194759529  1.0000
  Si  Si77      1.0  0.1187057055754792  0.6703256770977983  0.025870745669513303  1.0000
  Si  Si78      1.0  0.6175766990553065  0.671956939547494  0.4729989237299327  1.0000
  Si  Si79      1.0  0.383856882593197  0.3271752459307494  0.5231506583747905  1.0000
  Si  Si80      1.0  0.0692460440281522  0.8805094366423207  0.8177406853516638  1.0000
  Si  Si81      1.0  0.9303429017272206  0.11747838118978532  0.1829441126942256  1.0000
  Si  Si82      1.0  0.4298613556671074  0.11893204061103  0.3165816358195449  1.0000
  Si  Si83      1.0  0.5695475749124668  0.880439909545143  0.683692795132797  1.0000
  Si  Si84      1.0  0.9328515502948138  0.38127766754694964  0.1855734094816258  1.0000
  Si  Si85      1.0  0.0705315323819233  0.6189273427911288  0.815669482239067  1.0000
  Si  Si86      1.0  0.5724522024961092  0.62448769912481  0.68125958067523  1.0000
  Si  Si87      1.0  0.4314196408432519  0.3802399168555465  0.3139305354696567  1.0000
  Si  Si88      1.0  0.1943325648566425  0.827590144160091  0.7029725018429314  1.0000
  Si  Si89      1.0  0.8044575462039935  0.17342357150255494  0.2947652158202255  1.0000
  Si  Si90      1.0  0.3043263583930499  0.1722683643953203  0.2020367807985253  1.0000
  Si  Si91      1.0  0.6961162601135916  0.8296188843007188  0.7977078337616526  1.0000
  Si  Si92      1.0  0.8046914691566834  0.3287644288038055  0.2979694064043041  1.0000
  Si  Si93      1.0  0.19687584656267126  0.6726125237513025  0.7007023807732753  1.0000
  Si  Si94      1.0  0.6950786873780578  0.6760990321343737  0.7931952778962191  1.0000
  Si  Si95      1.0  0.3049642760103302  0.3275760996432067  0.2029354506628085  1.0000
  Sn  Sn1       1.0  0.5732275129313785  0.454812791626688  0.6880146600827871  1.0000
