data_image0
_chemical_formula_structural       O192Si95Ti
_chemical_formula_sum              "O192 Si95 Ti1"
_cell_length_a       20.36750290072554
_cell_length_b       19.8480164571387
_cell_length_c       13.360966123389888
_cell_angle_alpha    89.95156943874412
_cell_angle_beta     90.01570922798788
_cell_angle_gamma    90.02160634907763

_space_group_name_H-M_alt    "P 1"
_space_group_IT_number       1

loop_
  _space_group_symop_operation_xyz
  'x, y, z'

loop_
  _atom_site_type_symbol
  _atom_site_label
  _atom_site_symmetry_multiplicity
  _atom_site_fract_x
  _atom_site_fract_y
  _atom_site_fract_z
  _atom_site_occupancy
  O   O1        1.0  0.5029169552049272  0.07279832841261498  0.7075547728026655  1.0000
  O   O2        1.0  0.49658755020447737  0.9269961863308324  0.2912940297961943  1.0000
  O   O3        1.0  0.9971891388918609  0.9276791385849024  0.20863253252633704  1.0000
  O   O4        1.0  0.0028865135250715  0.06950809504021359  0.7879586638737609  1.0000
  O   O5        1.0  0.4963589649350897  0.5731672436875135  0.2961045299276147  1.0000
  O   O6        1.0  0.4936214571353368  0.4209257505024004  0.7242946945768131  1.0000
  O   O7        1.0  0.9995364019081119  0.42673459531619345  0.7991681501679353  1.0000
  O   O8        1.0  0.9945145421044606  0.5740247144072022  0.2121697798637931  1.0000
  O   O9        1.0  0.3873049311967166  0.0671109630790327  0.7959761539259391  1.0000
  O   O10       1.0  0.6121342339886667  0.934323704583938  0.20312015774760972  1.0000
  O   O11       1.0  0.1129749735936663  0.9323157424510411  0.2959406753474905  1.0000
  O   O12       1.0  0.8866225310186563  0.06892180588258669  0.7018830671311136  1.0000
  O   O13       1.0  0.6093182147846595  0.5678801580718217  0.20131382453986174  1.0000
  O   O14       1.0  0.3739450785032256  0.42674270423518007  0.7970417467518741  1.0000
  O   O15       1.0  0.8864165097999039  0.4306004461094878  0.7041403532032737  1.0000
  O   O16       1.0  0.1106184496158123  0.5649177171062952  0.2959101534576092  1.0000
  O   O17       1.0  0.40234867962480275  0.1394693334162617  0.6311743962967149  1.0000
  O   O18       1.0  0.5981504445279734  0.861877577372381  0.3680105246530931  1.0000
  O   O19       1.0  0.0972477845046209  0.8605111507861609  0.1314635028711491  1.0000
  O   O20       1.0  0.9051097602985765  0.13880626224120576  0.8671478288354957  1.0000
  O   O21       1.0  0.5990419374645516  0.6388544277009941  0.3676844518790558  1.0000
  O   O22       1.0  0.3976361163985936  0.35788535606809013  0.6317704066767877  1.0000
  O   O23       1.0  0.898377773606986  0.3593978323201518  0.8708404207948827  1.0000
  O   O24       1.0  0.0962713380302132  0.6366391109939634  0.1309490036892152  1.0000
  O   O25       1.0  0.40583061174238927  0.0051721766414424995  0.6211840294290614  1.0000
  O   O26       1.0  0.5925152065153324  0.9961679947141753  0.3774151515022358  1.0000
  O   O27       1.0  0.094476270510636  0.99506488638376  0.12168420163690921  1.0000
  O   O28       1.0  0.9043450458239004  0.0045010010803374  0.875272954472839  1.0000
  O   O29       1.0  0.5953478968665143  0.5045061091943117  0.3762454264505159  1.0000
  O   O30       1.0  0.4030141228896427  0.4927058472452866  0.6288087421149011  1.0000
  O   O31       1.0  0.8989004447268616  0.49369775498863017  0.8785438731348365  1.0000
  O   O32       1.0  0.0859825465802503  0.502572685585655  0.12121983711927661  1.0000
  O   O33       1.0  0.3225213224413165  0.0381995016934948  0.9628288062072966  1.0000
  O   O34       1.0  0.6767956226879471  0.9619883047175344  0.03638106935785141  1.0000
  O   O35       1.0  0.1763685810062643  0.9623142423775964  0.463368846627476  1.0000
  O   O36       1.0  0.8229710940978301  0.039145241200818796  0.5347210555426942  1.0000
  O   O37       1.0  0.6756392123661796  0.5399789252729532  0.0358133554685973  1.0000
  O   O38       1.0  0.3178482001622646  0.46441353340004105  0.9660135951692725  1.0000
  O   O39       1.0  0.8249942022368468  0.4638483652502106  0.5351155313101741  1.0000
  O   O40       1.0  0.1768830132460261  0.5393835218165828  0.4624645799992716  1.0000
  O   O41       1.0  0.3202916132657928  0.9538264855161558  0.8050837395921158  1.0000
  O   O42       1.0  0.6819115045554728  0.046394756426757  0.19280662931085862  1.0000
  O   O43       1.0  0.1781249861836409  0.046589084413190485  0.30616620378300397  1.0000
  O   O44       1.0  0.8217423266100402  0.9548360836577926  0.6920895246545229  1.0000
  O   O45       1.0  0.6751818450834105  0.4541615660204224  0.19170105030488271  1.0000
  O   O46       1.0  0.3177498682286206  0.5462428704504061  0.8061306790042847  1.0000
  O   O47       1.0  0.8249031064716021  0.5467756046505245  0.6938686701110438  1.0000
  O   O48       1.0  0.1805614767616955  0.4540032309381916  0.3058319553714891  1.0000
  O   O49       1.0  0.2561069997160493  0.0692967397754163  0.8006309412185089  1.0000
  O   O50       1.0  0.7432857038436406  0.9296212078729238  0.1988367259401526  1.0000
  O   O51       1.0  0.2442231475095574  0.9319753220035378  0.3019191400593497  1.0000
  O   O52       1.0  0.7551811064616403  0.0691268115981049  0.6964395156121944  1.0000
  O   O53       1.0  0.7401349509879891  0.5691474615572572  0.201148495435916  1.0000
  O   O54       1.0  0.24413839030106127  0.4358336292657187  0.8094498008268566  1.0000
  O   O55       1.0  0.7553794168933479  0.43413614539604894  0.6945513273795877  1.0000
  O   O56       1.0  0.2412744488340873  0.5718320377497353  0.29908010837322047  1.0000
  O   O57       1.0  0.2912715661950852  0.1263296242688572  0.10341556586003002  1.0000
  O   O58       1.0  0.7086965327550364  0.8755628328974421  0.8949494579540516  1.0000
  O   O59       1.0  0.20691215348854808  0.8749818777364047  0.6046120778830512  1.0000
  O   O60       1.0  0.7913223580767123  0.1249946538248903  0.39201730655572614  1.0000
  O   O61       1.0  0.7058993523879548  0.6266249056989198  0.8938578710462364  1.0000
  O   O62       1.0  0.2915986423870088  0.37516488221112426  0.10705232408583472  1.0000
  O   O63       1.0  0.7966773320167497  0.37440708283115026  0.3963684264602706  1.0000
  O   O64       1.0  0.21161930664083237  0.6263839896555211  0.6033129562193182  1.0000
  O   O65       1.0  0.1993792075354918  0.04423583580820929  0.028206687199267996  1.0000
  O   O66       1.0  0.8001534527069611  0.9570908449884191  0.9726288488937274  1.0000
  O   O67       1.0  0.2989400796374916  0.9578595914519841  0.5308376297622531  1.0000
  O   O68       1.0  0.7004089202548871  0.0417400607991466  0.46709619948185915  1.0000
  O   O69       1.0  0.7998683580106489  0.5502951731684714  0.9773462050262385  1.0000
  O   O70       1.0  0.1982585889585987  0.46004019611702673  0.0438709149932052  1.0000
  O   O71       1.0  0.7026978729861509  0.45692338935620525  0.4652794843933524  1.0000
  O   O72       1.0  0.3001447663299623  0.5410249127413755  0.528971986600218  1.0000
  O   O73       1.0  0.2944431239567245  0.996594696766633  0.1455143217856894  1.0000
  O   O74       1.0  0.7060280668492211  0.0055869465100892  0.8548844457618925  1.0000
  O   O75       1.0  0.20279332325282423  0.0048540044508333  0.6460692163200228  1.0000
  O   O76       1.0  0.7970205434179825  0.9947055934969848  0.3527139434800206  1.0000
  O   O77       1.0  0.7108400490516281  0.49615641651059217  0.8568160280654047  1.0000
  O   O78       1.0  0.2991727488013748  0.5044751271243464  0.15134793029586202  1.0000
  O   O79       1.0  0.7987036491140437  0.5036969050707019  0.35072891708206766  1.0000
  O   O80       1.0  0.20248799857603578  0.4968793751921805  0.6448283103698094  1.0000
  O   O81       1.0  0.10801040298248249  0.12781505835116158  0.0984000201227688  1.0000
  O   O82       1.0  0.8913263902085303  0.8727716443455543  0.9039248664808158  1.0000
  O   O83       1.0  0.390718628511089  0.8732333555153998  0.5965296615898606  1.0000
  O   O84       1.0  0.6094599939234385  0.12757349612720148  0.4012866294575965  1.0000
  O   O85       1.0  0.8934350990510823  0.6273044140150825  0.9000126822413472  1.0000
  O   O86       1.0  0.1058739165007846  0.3716877445495575  0.0974059636287033  1.0000
  O   O87       1.0  0.6143818296856687  0.37179116019709724  0.39154666978797315  1.0000
  O   O88       1.0  0.3920370230525658  0.6248241426940013  0.5989747235173194  1.0000
  O   O89       1.0  0.0809649695590858  0.049819617586764495  0.9442467845015402  1.0000
  O   O90       1.0  0.9187188120660882  0.9535067167412055  0.055299143663832206  1.0000
  O   O91       1.0  0.4156329663432201  0.9520413733300256  0.44209196895789665  1.0000
  O   O92       1.0  0.5841829973403129  0.0489480953646877  0.5566797758253418  1.0000
  O   O93       1.0  0.9204021258981065  0.5485926241373638  0.0537341159327052  1.0000
  O   O94       1.0  0.088163674594773  0.4497835567515459  0.9399348419788589  1.0000
  O   O95       1.0  0.5857926244228555  0.4440199779272078  0.5513143516052672  1.0000
  O   O96       1.0  0.4196269305150366  0.5429396584693184  0.4494458801781089  1.0000
  O   O97       1.0  0.1292251831004459  0.08084579999268458  0.7649176226835295  1.0000
  O   O98       1.0  0.8704740726835037  0.9185799014025103  0.23341035480391162  1.0000
  O   O99       1.0  0.3704044272608236  0.9201354371997601  0.2610240007024276  1.0000
  O   O100      1.0  0.6288815978044108  0.07908080038592889  0.7382810832616536  1.0000
  O   O101      1.0  0.8676091067679188  0.5812194245632429  0.2290923520257026  1.0000
  O   O102      1.0  0.1224750750942438  0.41887593612382085  0.7516933432905678  1.0000
  O   O103      1.0  0.635137809848276  0.4103690513933607  0.7574774835472815  1.0000
  O   O104      1.0  0.3694662070587822  0.5804214223911649  0.2741114232494775  1.0000
  O   O105      1.0  0.0781785763345037  0.9603253549927518  0.7954907149032024  1.0000
  O   O106      1.0  0.9237776471699366  0.03856430232722749  0.2095910216980215  1.0000
  O   O107      1.0  0.4248724358962855  0.03906885892961939  0.2905152698194781  1.0000
  O   O108      1.0  0.5733916024994924  0.9602043139501226  0.7063624610668682  1.0000
  O   O109      1.0  0.9233193963854806  0.46139020273848275  0.20542964981037962  1.0000
  O   O110      1.0  0.0720008043501569  0.5383701916357028  0.7926849866423594  1.0000
  O   O111      1.0  0.5770243559321888  0.5443300078253448  0.713548133689  1.0000
  O   O112      1.0  0.4254651980005081  0.4606508215728556  0.29226174254933623  1.0000
  O   O113      1.0  0.2144194139039694  0.1391189242229063  0.6473532167828383  1.0000
  O   O114      1.0  0.7859932493245646  0.8603894765124226  0.35208892607987646  1.0000
  O   O115      1.0  0.2831411945760945  0.8623353656873016  0.1461726582805661  1.0000
  O   O116      1.0  0.7161542740076854  0.13983000252242817  0.85093846779773  1.0000
  O   O117      1.0  0.7849902843123692  0.6379763443437522  0.3531401585179071  1.0000
  O   O118      1.0  0.21860512535594792  0.3636040202987718  0.6475223836228695  1.0000
  O   O119      1.0  0.7367816542367175  0.3640273276313323  0.8588357999648933  1.0000
  O   O120      1.0  0.2897658862418618  0.6392199668735652  0.1480790200856679  1.0000
  O   O121      1.0  0.496773166342946  0.8515336712822819  0.7114729880297049  1.0000
  O   O122      1.0  0.5024413705983434  0.1460151628715182  0.2869121970165954  1.0000
  O   O123      1.0  0.0025662281746331  0.1444839193665937  0.2157341416132293  1.0000
  O   O124      1.0  0.9961184052656444  0.8565786113071763  0.7844760666290151  1.0000
  O   O125      1.0  0.5031833983753815  0.35379788432877807  0.2869154110274993  1.0000
  O   O126      1.0  0.4980460615361338  0.6508270266256416  0.7135025472945759  1.0000
  O   O127      1.0  0.9989758962352119  0.6483884592732435  0.7847869748640577  1.0000
  O   O128      1.0  0.003211991525813  0.355895726992043  0.22219034661926473  1.0000
  O   O129      1.0  0.3795157539210832  0.8354341428178823  0.7878505361456837  1.0000
  O   O130      1.0  0.6187398831946999  0.1623901527805728  0.20798108382794922  1.0000
  O   O131      1.0  0.1200778317017445  0.16563271574248317  0.28906173265845186  1.0000
  O   O132      1.0  0.8783725255933532  0.8353164990251207  0.7128854977874287  1.0000
  O   O133      1.0  0.6173388837084046  0.33396502235131426  0.2012908345142824  1.0000
  O   O134      1.0  0.3806652149844869  0.6631340489644965  0.7891327175880183  1.0000
  O   O135      1.0  0.8815087403127678  0.6666259015171588  0.7098190045349844  1.0000
  O   O136      1.0  0.1215329702263815  0.3348265336193316  0.2886884101430776  1.0000
  O   O137      1.0  0.4209767801224222  0.7496676209947948  0.6492331958116867  1.0000
  O   O138      1.0  0.57636630831404  0.2495351387013934  0.3440909107922471  1.0000
  O   O139      1.0  0.0718947614761715  0.2502456854418784  0.1538888123242638  1.0000
  O   O140      1.0  0.9263611822620393  0.7509283492163534  0.8486765847529089  1.0000
  O   O141      1.0  0.3156080901676089  0.8667110176277473  0.9540954107154241  1.0000
  O   O142      1.0  0.6853033514363315  0.1340220167776749  0.0428165600335417  1.0000
  O   O143      1.0  0.1835986780236451  0.1342999450599661  0.45493983069351673  1.0000
  O   O144      1.0  0.8169955133775555  0.8665417449376538  0.5443659982331182  1.0000
  O   O145      1.0  0.6883520661311671  0.36800478564310307  0.0434443643922659  1.0000
  O   O146      1.0  0.3166213315256803  0.6337584558458019  0.9550605760722439  1.0000
  O   O147      1.0  0.8170516207220729  0.6331110666229856  0.5447958651867661  1.0000
  O   O148      1.0  0.1830564646086227  0.3676252812447248  0.4562350485085245  1.0000
  O   O149      1.0  0.2490885855121439  0.8425725284107355  0.7875295627412213  1.0000
  O   O150      1.0  0.7492836437368302  0.16003352274467075  0.21004966590975702  1.0000
  O   O151      1.0  0.2504198050440408  0.15677248460327786  0.2881278961281351  1.0000
  O   O152      1.0  0.7480520807957172  0.8458751951145815  0.7091887603187433  1.0000
  O   O153      1.0  0.7468525265516189  0.3442299606952117  0.2176041627212299  1.0000
  O   O154      1.0  0.2503505228562961  0.6598356631951464  0.7885603258307402  1.0000
  O   O155      1.0  0.7515758097827352  0.6566788533010494  0.7123775820655507  1.0000
  O   O156      1.0  0.2512730835305665  0.34268384306875427  0.29106002513878215  1.0000
  O   O157      1.0  0.2954265097662651  0.7504796173343818  0.044548455352046  1.0000
  O   O158      1.0  0.7080987921478967  0.25131220609454924  0.9542436144893908  1.0000
  O   O159      1.0  0.2029663718776851  0.2508628884607421  0.5467197955508608  1.0000
  O   O160      1.0  0.7963194880224751  0.7495643506367203  0.45580079454868316  1.0000
  O   O161      1.0  0.1951329521543906  0.8330704081446774  0.0063817285074726  1.0000
  O   O162      1.0  0.8065676111990379  0.166606744620545  0.989722952931444  1.0000
  O   O163      1.0  0.3035014379830963  0.16810761240896696  0.5088132255577373  1.0000
  O   O164      1.0  0.6965655369711903  0.8332231101908024  0.4910086905078662  1.0000
  O   O165      1.0  0.8099590993735324  0.3271133723690604  0.010911651336418303  1.0000
  O   O166      1.0  0.1968043591994277  0.6648932690362892  0.012728797310456702  1.0000
  O   O167      1.0  0.696352567005231  0.6667336370496946  0.4930232220758766  1.0000
  O   O168      1.0  0.3032332215603302  0.3310980717098719  0.503273701782903  1.0000
  O   O169      1.0  0.0944387217403323  0.7484758531646456  0.024596160501845505  1.0000
  O   O170      1.0  0.9118262647415758  0.2479056801795072  0.9782729289321642  1.0000
  O   O171      1.0  0.4070049472342363  0.2493637178889978  0.5186688298883692  1.0000
  O   O172      1.0  0.5943482864287651  0.750188088236618  0.4754778061055931  1.0000
  O   O173      1.0  0.0789628943480149  0.8668224483784901  0.9358552830270348  1.0000
  O   O174      1.0  0.9203044471942909  0.127775497231086  0.0635793911143047  1.0000
  O   O175      1.0  0.4173174478661154  0.12890087822584598  0.43498978237749913  1.0000
  O   O176      1.0  0.5819244182337526  0.8689109278744717  0.5643944691203164  1.0000
  O   O177      1.0  0.9277118281715641  0.36820536633035444  0.0634371259864251  1.0000
  O   O178      1.0  0.0832485982171321  0.6301474924088208  0.934004962145016  1.0000
  O   O179      1.0  0.5805939262595732  0.6313721900204969  0.5635858663536949  1.0000
  O   O180      1.0  0.41904733316108017  0.37000708078533406  0.43641617838467694  1.0000
  O   O181      1.0  0.12194040090145358  0.8392709060604353  0.7498450536934494  1.0000
  O   O182      1.0  0.876495010679536  0.1598976051842471  0.24730696044767383  1.0000
  O   O183      1.0  0.3770710285249456  0.15958449303290237  0.2484443156782222  1.0000
  O   O184      1.0  0.622134081710259  0.8404434809573089  0.7521864661178506  1.0000
  O   O185      1.0  0.8755614323865064  0.3403570813632378  0.24355184306021413  1.0000
  O   O186      1.0  0.1242056981242486  0.6565604202879746  0.7466117080366239  1.0000
  O   O187      1.0  0.6243762543686093  0.6666586861360615  0.7461004602289552  1.0000
  O   O188      1.0  0.3777721989239211  0.3398348686093107  0.2504305753940856  1.0000
  O   O189      1.0  0.1996400492786593  0.7502228306167327  0.6646343922402929  1.0000
  O   O190      1.0  0.8003562771968586  0.2503163584181069  0.3333412077562193  1.0000
  O   O191      1.0  0.298988861394065  0.25034488937693755  0.16675107629606484  1.0000
  O   O192      1.0  0.7043590192792182  0.7517104270923789  0.8332099073270552  1.0000
  Si  Si1       1.0  0.424508208460323  0.0707359351018812  0.6881746269571271  1.0000
  Si  Si2       1.0  0.5749756588242836  0.9301208937826424  0.31086114263444  1.0000
  Si  Si3       1.0  0.0755272282196727  0.9293352534408608  0.1883504130214263  1.0000
  Si  Si4       1.0  0.9246993921221666  0.0699101090584728  0.8089969159263907  1.0000
  Si  Si5       1.0  0.5750923798140473  0.5706391056872457  0.3114127305477323  1.0000
  Si  Si6       1.0  0.4165266237166089  0.42508170674119566  0.6944145691370394  1.0000
  Si  Si7       1.0  0.9209234395022461  0.4281432028367035  0.8141273711359702  1.0000
  Si  Si8       1.0  0.0724153411549634  0.5691225064172786  0.18913960554846443  1.0000
  Si  Si9       1.0  0.3216285823503814  0.0320512830619659  0.8417869248683688  1.0000
  Si  Si10      1.0  0.6784533792316538  0.9679827140091777  0.15730186658570514  1.0000
  Si  Si11      1.0  0.1779184677806523  0.9682303402277098  0.3424156160099269  1.0000
  Si  Si12      1.0  0.8215296321306568  0.0331099332698331  0.6556630945775483  1.0000
  Si  Si13      1.0  0.675179642804619  0.5327517503858609  0.15662138403792392  1.0000
  Si  Si14      1.0  0.3133962491487991  0.46858703871413243  0.8453034889572553  1.0000
  Si  Si15      1.0  0.8231242530381483  0.4687913891591334  0.6560895972897243  1.0000
  Si  Si16      1.0  0.1773939875997195  0.5324158086692939  0.34158998671005353  1.0000
  Si  Si17      1.0  0.2763652304719022  0.05146250502788519  0.06010916443304751  1.0000
  Si  Si18      1.0  0.7234246693227714  0.9500089431705425  0.9393951604449343  1.0000
  Si  Si19      1.0  0.2218752652209551  0.9498930495123032  0.5615362111584303  1.0000
  Si  Si20      1.0  0.7773859269473312  0.05018454577970359  0.4362414344868007  1.0000
  Si  Si21      1.0  0.723579635378184  0.55339983374451  0.9406485622984712  1.0000
  Si  Si22      1.0  0.2760021478156559  0.45076922184567303  0.0673584866742502  1.0000
  Si  Si23      1.0  0.7800993457731291  0.4495356148284161  0.436810342369706  1.0000
  Si  Si24      1.0  0.22327653425381142  0.5509804644415118  0.5599048805202524  1.0000
  Si  Si25      1.0  0.12117962067050558  0.0542696506932718  0.048563317217665006  1.0000
  Si  Si26      1.0  0.8782160176768481  0.9469471034576568  0.9515617420583289  1.0000
  Si  Si27      1.0  0.3773409878185379  0.9470984764800451  0.5478843901519748  1.0000
  Si  Si28      1.0  0.6221642900172932  0.05371668856732199  0.4505466108352614  1.0000
  Si  Si29      1.0  0.8778577485783211  0.5549752855173957  0.9517959643235812  1.0000
  Si  Si30      1.0  0.1198554609423055  0.4459365751099436  0.0505445995502776  1.0000
  Si  Si31      1.0  0.6248607929112984  0.44444266710606173  0.4451514247834448  1.0000
  Si  Si32      1.0  0.3781428333438236  0.5505808723933954  0.5520790803062042  1.0000
  Si  Si33      1.0  0.0728582718641336  0.039601541794893294  0.8243769570601596  1.0000
  Si  Si34      1.0  0.9274674968464672  0.9600626885958367  0.175644193517585  1.0000
  Si  Si35      1.0  0.42682510115244837  0.9601028104598215  0.3224495128862188  1.0000
  Si  Si36      1.0  0.5725555593297456  0.039557909331695  0.6760452034640879  1.0000
  Si  Si37      1.0  0.9262950672721366  0.540582842297432  0.1744079458592666  1.0000
  Si  Si38      1.0  0.0707410692783286  0.45898355350534736  0.8224069698898987  1.0000
  Si  Si39      1.0  0.4275866141036888  0.5387216211035927  0.32878337390281803  1.0000
  Si  Si40      1.0  0.2006722703282765  0.0725920874961636  0.7136698257467093  1.0000
  Si  Si41      1.0  0.7991626090220404  0.9268407311569479  0.2852783010093396  1.0000
  Si  Si42      1.0  0.2980580987543262  0.9285902659810668  0.2125839925962106  1.0000
  Si  Si43      1.0  0.7015707461246697  0.07268017818332319  0.7861157913365944  1.0000
  Si  Si44      1.0  0.7976648325870518  0.5722157518511649  0.2846891445678829  1.0000
  Si  Si45      1.0  0.19696140358755704  0.4290343583583522  0.7118535550749953  1.0000
  Si  Si46      1.0  0.7096716131506458  0.4266341937423159  0.7933741966649828  1.0000
  Si  Si47      1.0  0.2998342636961438  0.5731283946198469  0.2169910454030933  1.0000
  Si  Si48      1.0  0.4224611015645682  0.827775159287224  0.6856967034790545  1.0000
  Si  Si49      1.0  0.5765358844688733  0.17091632875980006  0.3106109714184857  1.0000
  Si  Si50      1.0  0.075411117019177  0.1718289175595484  0.1885372972937071  1.0000
  Si  Si51      1.0  0.9234194181192893  0.8291537515860838  0.813071529613928  1.0000
  Si  Si52      1.0  0.5771876381777791  0.3272644035936341  0.30643143920638544  1.0000
  Si  Si53      1.0  0.4231832469664089  0.6717950731788596  0.6868931056181358  1.0000
  Si  Si54      1.0  0.925256967542918  0.6730291796463829  0.8113123615548308  1.0000
  Si  Si55      1.0  0.0753072309174662  0.3283650950129556  0.1899458825051263  1.0000
  Si  Si56      1.0  0.3161420321186983  0.874332611042175  0.8331279888253038  1.0000
  Si  Si57      1.0  0.6836730176426957  0.12578259410957238  0.1637531046622481  1.0000
  Si  Si58      1.0  0.1830928584466893  0.125951851087393  0.33411722055610793  1.0000
  Si  Si59      1.0  0.816492331727026  0.8753685032099487  0.6651257280979509  1.0000
  Si  Si60      1.0  0.6820156985184698  0.37493450037128023  0.1641817476437373  1.0000
  Si  Si61      1.0  0.3163450117807909  0.6258775598093413  0.834275024871759  1.0000
  Si  Si62      1.0  0.8187188634787721  0.6260246916241343  0.6657351067467016  1.0000
  Si  Si63      1.0  0.1839364870161513  0.37466347269947425  0.33501254211799825  1.0000
  Si  Si64      1.0  0.2719135628694642  0.8280457353710551  0.0381724849116823  1.0000
  Si  Si65      1.0  0.7295433795506009  0.17285873083462439  0.9593709148056833  1.0000
  Si  Si66      1.0  0.2266066716540243  0.1731887603087318  0.5394985825419676  1.0000
  Si  Si67      1.0  0.7734558782081855  0.8273886536155578  0.46063195585322847  1.0000
  Si  Si68      1.0  0.7356623437218002  0.3272992711559496  0.9666743123388759  1.0000
  Si  Si69      1.0  0.2740269889204214  0.6721847645344355  0.0404773334665408  1.0000
  Si  Si70      1.0  0.773121034143386  0.6718504294926707  0.4612040593962721  1.0000
  Si  Si71      1.0  0.2271936517501071  0.3282809256478392  0.5392391973475873  1.0000
  Si  Si72      1.0  0.1166883902126445  0.8270066114834936  0.0249523219713932  1.0000
  Si  Si73      1.0  0.8855405529760297  0.17060997219039117  0.9745724781994792  1.0000
  Si  Si74      1.0  0.3823972626032819  0.1715791533518034  0.5237909325018586  1.0000
  Si  Si75      1.0  0.6178963812359729  0.8283342680494558  0.474504650393384  1.0000
  Si  Si76      1.0  0.8871214084899318  0.32568936877158966  0.9800010300770564  1.0000
  Si  Si77      1.0  0.11789004869254409  0.6703221361838863  0.025578955175417303  1.0000
  Si  Si78      1.0  0.6178105288773944  0.6720386924383706  0.4746684635929723  1.0000
  Si  Si79      1.0  0.3817017478874909  0.32691951136363173  0.522528394212606  1.0000
  Si  Si80      1.0  0.0691580772399443  0.8805404175910398  0.8167039419434804  1.0000
  Si  Si81      1.0  0.9304154603226144  0.11803247561475001  0.18363794229351224  1.0000
  Si  Si82      1.0  0.43005387608105194  0.1187230065483524  0.31560978431855813  1.0000
  Si  Si83      1.0  0.5689761998017802  0.88009840284375  0.68344794158371  1.0000
  Si  Si84      1.0  0.9319477916549813  0.38156501466746323  0.1838044346473257  1.0000
  Si  Si85      1.0  0.0701254712217114  0.61854550756044  0.8151458592093285  1.0000
  Si  Si86      1.0  0.5703500774245475  0.6236654904135863  0.684013618786853  1.0000
  Si  Si87      1.0  0.43097243913326244  0.38088022730545656  0.31688864263374794  1.0000
  Si  Si88      1.0  0.1943185479173724  0.827703693875735  0.701856623364947  1.0000
  Si  Si89      1.0  0.8045158380944861  0.1728586232825883  0.29565051664723  1.0000
  Si  Si90      1.0  0.3045130452875247  0.17235153956185056  0.2017924113371641  1.0000
  Si  Si91      1.0  0.6954675286492235  0.829172034424411  0.7971582274831606  1.0000
  Si  Si92      1.0  0.8049765784360741  0.328125469720401  0.29710526498598433  1.0000
  Si  Si93      1.0  0.1963109858618279  0.6723847034659622  0.7009266439053932  1.0000
  Si  Si94      1.0  0.6966233599353031  0.6743563417031506  0.7963043820117501  1.0000
  Si  Si95      1.0  0.3050257794844532  0.3277854982676276  0.2040122771816903  1.0000
  Ti  Ti1       1.0  0.5726528300519111  0.454587812182297  0.6853189815234562  1.0000
