data_image0
_chemical_formula_structural       O192Si95W
_chemical_formula_sum              "O192 Si95 W1"
_cell_length_a       20.328195329420815
_cell_length_b       19.835152924352798
_cell_length_c       13.378048358611194
_cell_angle_alpha    89.93032166120591
_cell_angle_beta     90.08765944908278
_cell_angle_gamma    89.73471647084462

_space_group_name_H-M_alt    "P 1"
_space_group_IT_number       1

loop_
  _space_group_symop_operation_xyz
  'x, y, z'

loop_
  _atom_site_type_symbol
  _atom_site_label
  _atom_site_symmetry_multiplicity
  _atom_site_fract_x
  _atom_site_fract_y
  _atom_site_fract_z
  _atom_site_occupancy
  O   O1        1.0  0.5031492182690065  0.07343148722702181  0.7044818334642771  1.0000
  O   O2        1.0  0.4970818716355117  0.9263624071474035  0.2904026610847852  1.0000
  O   O3        1.0  0.9978283373166383  0.9267468664718804  0.2081984760518323  1.0000
  O   O4        1.0  0.0033812775079951995  0.07036070050799051  0.7878679197572888  1.0000
  O   O5        1.0  0.49430967935478737  0.5745809550484641  0.2967849228226063  1.0000
  O   O6        1.0  0.4952907819443937  0.4117493539311274  0.7284755978484236  1.0000
  O   O7        1.0  0.9954296904156237  0.43316133423677783  0.7961132032080253  1.0000
  O   O8        1.0  0.9938256116575164  0.5747515087416265  0.2135371696696758  1.0000
  O   O9        1.0  0.3891103643402118  0.06449125389683431  0.7966183729384266  1.0000
  O   O10       1.0  0.6124050344745592  0.9350744284139272  0.20228452067605937  1.0000
  O   O11       1.0  0.1129997371131889  0.9330721653951476  0.2970048353747704  1.0000
  O   O12       1.0  0.8868000950213388  0.07063065412342512  0.7021721369487874  1.0000
  O   O13       1.0  0.606661261588242  0.57052563776632  0.1978975781722081  1.0000
  O   O14       1.0  0.374307128065536  0.42619028321527197  0.7971587496031227  1.0000
  O   O15       1.0  0.8783950099930576  0.4280575117365383  0.709214961712566  1.0000
  O   O16       1.0  0.10964861099804718  0.5646175701359888  0.298237903080149  1.0000
  O   O17       1.0  0.3987866062271215  0.13585201311739872  0.6308932673964861  1.0000
  O   O18       1.0  0.5997627815031537  0.8633886368785665  0.3683378396349478  1.0000
  O   O19       1.0  0.09965318004674109  0.8612345677319035  0.1321270638775353  1.0000
  O   O20       1.0  0.9052579257450207  0.13975417958277134  0.8678485787054377  1.0000
  O   O21       1.0  0.5980195566373178  0.6395801233129174  0.3667078631880663  1.0000
  O   O22       1.0  0.396221886946015  0.3579002317020348  0.6312159272826114  1.0000
  O   O23       1.0  0.9016971398199788  0.35763779669822976  0.8722412709247908  1.0000
  O   O24       1.0  0.096269169088153  0.6364765634356676  0.13215046492448557  1.0000
  O   O25       1.0  0.40766054567564897  0.0012012107874731005  0.6226580060859519  1.0000
  O   O26       1.0  0.5918176435081507  0.9975672775579969  0.3756609412896602  1.0000
  O   O27       1.0  0.0945084639897506  0.9957241939134934  0.1227579134894408  1.0000
  O   O28       1.0  0.9053420040866694  0.0050866115486307  0.8746297959266558  1.0000
  O   O29       1.0  0.595160450803601  0.504920399626493  0.3687742701729637  1.0000
  O   O30       1.0  0.41109107677892565  0.4920356848881027  0.6310992603442901  1.0000
  O   O31       1.0  0.8915584264606304  0.4916820604859269  0.8827899906220132  1.0000
  O   O32       1.0  0.0857358295351451  0.5027592531452812  0.1230295311111867  1.0000
  O   O33       1.0  0.3227322152412856  0.03770128971206311  0.9624599746423906  1.0000
  O   O34       1.0  0.6776674208038451  0.9631084870239993  0.0364776221387783  1.0000
  O   O35       1.0  0.1781390630641703  0.9625726812434937  0.4626395620066283  1.0000
  O   O36       1.0  0.8237747186228258  0.0407818400355486  0.534170354009223  1.0000
  O   O37       1.0  0.6755167200186031  0.5435473047482176  0.0362076338252515  1.0000
  O   O38       1.0  0.3170740961846494  0.4634646080426868  0.9653076560315802  1.0000
  O   O39       1.0  0.8214394467747458  0.46233522260812104  0.5380925197246177  1.0000
  O   O40       1.0  0.1795077789080762  0.5386128905493851  0.4629879123995041  1.0000
  O   O41       1.0  0.3199104853346776  0.9531074664606686  0.8045020020999424  1.0000
  O   O42       1.0  0.6832099194942889  0.04659817197328551  0.1931841487545851  1.0000
  O   O43       1.0  0.1800235157555486  0.04631479004400671  0.3050610161821211  1.0000
  O   O44       1.0  0.8232752823640229  0.9562093801223238  0.6911597413093563  1.0000
  O   O45       1.0  0.6727261654537401  0.45550689797760374  0.18935668469815248  1.0000
  O   O46       1.0  0.3170474165271525  0.5452088720884941  0.8049500435906779  1.0000
  O   O47       1.0  0.8214589826048925  0.5463286090866041  0.6951890809853741  1.0000
  O   O48       1.0  0.18098343301544306  0.4540074050046651  0.3055447942433402  1.0000
  O   O49       1.0  0.25775266403490465  0.0700733527377024  0.7989951366633257  1.0000
  O   O50       1.0  0.7434675519911871  0.9290404595145746  0.19986541201678998  1.0000
  O   O51       1.0  0.2442632419855784  0.9303096394035582  0.30000181572006274  1.0000
  O   O52       1.0  0.755232203562816  0.0700780447618241  0.6954910624310436  1.0000
  O   O53       1.0  0.7374846718426037  0.5698402121586249  0.2052810816429723  1.0000
  O   O54       1.0  0.2438199559561149  0.43457760633818493  0.808551472489262  1.0000
  O   O55       1.0  0.7462259930280143  0.43685302014864086  0.693244044125162  1.0000
  O   O56       1.0  0.239854494094189  0.5726061525342269  0.2977082095742511  1.0000
  O   O57       1.0  0.2914518495240391  0.1253659862535875  0.10411102523240498  1.0000
  O   O58       1.0  0.7105664041378231  0.8776520295944976  0.894791316202324  1.0000
  O   O59       1.0  0.2057399975512163  0.8750063738295343  0.6048495924426708  1.0000
  O   O60       1.0  0.7904987123617022  0.1247477137694272  0.38963725322540277  1.0000
  O   O61       1.0  0.7023207088610341  0.6272866433916529  0.8900610125518267  1.0000
  O   O62       1.0  0.2891466853618145  0.3752020821419505  0.1070582623247091  1.0000
  O   O63       1.0  0.7936324609521647  0.3746928194856375  0.3964851081301008  1.0000
  O   O64       1.0  0.21371595585801156  0.6252104487061622  0.6043061503482356  1.0000
  O   O65       1.0  0.19960004612895307  0.043646370867154005  0.028153462390781897  1.0000
  O   O66       1.0  0.8012596909748098  0.9591707469007489  0.9730492433380945  1.0000
  O   O67       1.0  0.3003657214324443  0.9548493503333776  0.5321650106076942  1.0000
  O   O68       1.0  0.7011895962821335  0.040214844979862205  0.4653398518891704  1.0000
  O   O69       1.0  0.800158531169459  0.5607574811018164  0.9829794173399283  1.0000
  O   O70       1.0  0.1965498117745853  0.46021853423289777  0.0399447184832851  1.0000
  O   O71       1.0  0.7000915817497355  0.45818123854444237  0.4659362320490788  1.0000
  O   O72       1.0  0.3016951750103235  0.5353089560102041  0.5383351975989873  1.0000
  O   O73       1.0  0.2951574436645182  0.9951939869522525  0.144425961819551  1.0000
  O   O74       1.0  0.7066532984312726  0.0076323442621277025  0.8552262975038241  1.0000
  O   O75       1.0  0.204380989525246  0.004881326344420901  0.6453166873094955  1.0000
  O   O76       1.0  0.7990751116625403  0.9938819105493671  0.3530187651469474  1.0000
  O   O77       1.0  0.7194533809892859  0.495548925791465  0.8645949620430385  1.0000
  O   O78       1.0  0.2971190461895727  0.5048519018704105  0.14954475927527558  1.0000
  O   O79       1.0  0.7977470898448795  0.5045282765098889  0.35365249939333643  1.0000
  O   O80       1.0  0.1985752749267069  0.4963071026703495  0.646531542307612  1.0000
  O   O81       1.0  0.10783448648065849  0.1279294624409358  0.0965723078549475  1.0000
  O   O82       1.0  0.8915278156230986  0.8734112492430408  0.9032232039259194  1.0000
  O   O83       1.0  0.39292762294978933  0.8691332007759857  0.5951688887106433  1.0000
  O   O84       1.0  0.6113837719842393  0.1282446676692813  0.4002235293167883  1.0000
  O   O85       1.0  0.8989704098714851  0.6259071678981172  0.8997350629030756  1.0000
  O   O86       1.0  0.1051804812481312  0.37191999721298447  0.0971558141345334  1.0000
  O   O87       1.0  0.6155010129242294  0.37170037252662463  0.3871863651477497  1.0000
  O   O88       1.0  0.3919475084905159  0.6234887972537586  0.6024458392741702  1.0000
  O   O89       1.0  0.0810367691509592  0.048465259631235304  0.9440660379387125  1.0000
  O   O90       1.0  0.9201556004355791  0.95396090200128  0.05452291993675949  1.0000
  O   O91       1.0  0.4165689132891177  0.9498996683162689  0.4422546539606951  1.0000
  O   O92       1.0  0.5853227664291584  0.049361332502960306  0.5553235152125217  1.0000
  O   O93       1.0  0.9215326707893453  0.5470731315734354  0.0544987258636144  1.0000
  O   O94       1.0  0.0833229386678888  0.4502613091515682  0.9414822995259429  1.0000
  O   O95       1.0  0.5783593227420495  0.44561952333573474  0.5396823095074972  1.0000
  O   O96       1.0  0.418795592275357  0.5430069588376065  0.4509913695047518  1.0000
  O   O97       1.0  0.1301490925356103  0.07961749107613682  0.765650577766882  1.0000
  O   O98       1.0  0.8709732500915642  0.9177592260526545  0.23133715531655166  1.0000
  O   O99       1.0  0.3708191802630064  0.9187966719644646  0.2611834145084035  1.0000
  O   O100      1.0  0.6289461314614219  0.08030265674421513  0.7371827858012125  1.0000
  O   O101      1.0  0.8660092793521061  0.5799408669845243  0.22764863322316986  1.0000
  O   O102      1.0  0.12030989536295099  0.4181736746331465  0.7555092709619687  1.0000
  O   O103      1.0  0.6272112756977642  0.4193688108686188  0.7760923496299623  1.0000
  O   O104      1.0  0.3677643087738365  0.5791879431184725  0.2751140028390681  1.0000
  O   O105      1.0  0.07786485646445229  0.959709581920949  0.7947004798004752  1.0000
  O   O106      1.0  0.9242766031446962  0.038050472839642704  0.21042187891988  1.0000
  O   O107      1.0  0.42431527058900975  0.0380768094853699  0.291867172468453  1.0000
  O   O108      1.0  0.5746568616882458  0.9610310908315335  0.7056066454146649  1.0000
  O   O109      1.0  0.9241523246018271  0.461205850881041  0.20805319042999978  1.0000
  O   O110      1.0  0.0734502967054127  0.5396374501012272  0.793710678397643  1.0000
  O   O111      1.0  0.5975122177886449  0.5487770244141077  0.71708918189386  1.0000
  O   O112      1.0  0.4254720263348716  0.4603728054163373  0.2950877418900275  1.0000
  O   O113      1.0  0.21308861002119306  0.1391490771390378  0.6465689326513756  1.0000
  O   O114      1.0  0.787655233767418  0.8595056969659791  0.3519857868588221  1.0000
  O   O115      1.0  0.2845907466615263  0.8608133941493583  0.1447285929925701  1.0000
  O   O116      1.0  0.715872237179371  0.14163480473642384  0.8495006098929974  1.0000
  O   O117      1.0  0.7867538633840756  0.6392227950726025  0.35305946938948995  1.0000
  O   O118      1.0  0.215544856218946  0.3630110940592602  0.6477172076126939  1.0000
  O   O119      1.0  0.7325312927986373  0.36252594108742825  0.8544674257438287  1.0000
  O   O120      1.0  0.29011250510663916  0.6397773458062516  0.1481878788181397  1.0000
  O   O121      1.0  0.49844369674797606  0.8522501130335158  0.7127973203405776  1.0000
  O   O122      1.0  0.5023649244469762  0.14493711035930834  0.2893359914025891  1.0000
  O   O123      1.0  0.0021469766186576994  0.1448407407158757  0.2140818438503569  1.0000
  O   O124      1.0  0.9966900987807992  0.8555253208140637  0.7849505126596606  1.0000
  O   O125      1.0  0.5027966687384927  0.35352675773034054  0.2865968174336031  1.0000
  O   O126      1.0  0.5000351618750037  0.6413510696162081  0.7149729505015019  1.0000
  O   O127      1.0  0.0014046649096609999  0.6511454554277806  0.7812084753180807  1.0000
  O   O128      1.0  0.0026957070529705996  0.35445956675359236  0.22242795864138828  1.0000
  O   O129      1.0  0.3809228490937889  0.8345653658636671  0.7873078444698227  1.0000
  O   O130      1.0  0.6172906042786358  0.16134951638804593  0.20574064956122293  1.0000
  O   O131      1.0  0.11966873689840159  0.16474111128681113  0.2875888591387866  1.0000
  O   O132      1.0  0.8790944750187533  0.835888803066078  0.7121653217947617  1.0000
  O   O133      1.0  0.616740289339992  0.3343225457743221  0.1977757698229559  1.0000
  O   O134      1.0  0.38439846272061223  0.6600766471052972  0.7933730238255732  1.0000
  O   O135      1.0  0.8819679418793612  0.6643609040402683  0.7101530634418456  1.0000
  O   O136      1.0  0.12166092998529408  0.3349043446294794  0.2877223359700071  1.0000
  O   O137      1.0  0.4269991899110508  0.7466256408358072  0.6547080051199261  1.0000
  O   O138      1.0  0.5769212674971668  0.249449559028951  0.3413920101923473  1.0000
  O   O139      1.0  0.0723680866003899  0.25009670861416594  0.1526848517688192  1.0000
  O   O140      1.0  0.9254088268548599  0.750722970294761  0.8478825241012609  1.0000
  O   O141      1.0  0.316687637608329  0.8660563854599628  0.95287351808305  1.0000
  O   O142      1.0  0.6847324404375348  0.13308381229375282  0.0412738154919066  1.0000
  O   O143      1.0  0.1824270417739882  0.1340357814668497  0.453909390743899  1.0000
  O   O144      1.0  0.8180473889491927  0.8678436902410722  0.5438102637694847  1.0000
  O   O145      1.0  0.6877708470226852  0.36995953884555044  0.0410532342072239  1.0000
  O   O146      1.0  0.3166409858297283  0.6311946310868894  0.955704945342591  1.0000
  O   O147      1.0  0.8170206509183928  0.6319597874707918  0.5451675125644515  1.0000
  O   O148      1.0  0.18215209804275756  0.36797486748455344  0.45580981265572856  1.0000
  O   O149      1.0  0.2505779991994754  0.8411054427027663  0.785906391515147  1.0000
  O   O150      1.0  0.7482858188960531  0.16131343828123862  0.20822210454795162  1.0000
  O   O151      1.0  0.2502787102890696  0.15749390985657372  0.28800614260064455  1.0000
  O   O152      1.0  0.748823976942716  0.8480338466465218  0.7084736832867036  1.0000
  O   O153      1.0  0.7463047696776764  0.3461435097034203  0.2158522677722563  1.0000
  O   O154      1.0  0.2541424957667183  0.66189710402318  0.7870863982403237  1.0000
  O   O155      1.0  0.751672276878468  0.659089733296935  0.7115854379972446  1.0000
  O   O156      1.0  0.25148929000945053  0.3418949040042467  0.2918380754571305  1.0000
  O   O157      1.0  0.2959112546667184  0.7493746742064326  0.0410531054445213  1.0000
  O   O158      1.0  0.7062523988411861  0.25162136837213284  0.9562818103719991  1.0000
  O   O159      1.0  0.2003735225768836  0.2507200958264539  0.5459620224197044  1.0000
  O   O160      1.0  0.7977728608660084  0.7495414578919496  0.4587616042087585  1.0000
  O   O161      1.0  0.1959045054303762  0.8330607997162516  0.0047024989929008  1.0000
  O   O162      1.0  0.8057726737708951  0.1668946006422231  0.9893581175678198  1.0000
  O   O163      1.0  0.3018429849655986  0.16850361192226732  0.5075548972186787  1.0000
  O   O164      1.0  0.6977704569836123  0.833522462171793  0.4910448660283726  1.0000
  O   O165      1.0  0.808676509459431  0.3280434038389163  0.0064349029331868  1.0000
  O   O166      1.0  0.1966290451413162  0.6638165273795832  0.012774110793977  1.0000
  O   O167      1.0  0.6966392561178641  0.6668477792481127  0.4905795939267144  1.0000
  O   O168      1.0  0.3017015291480472  0.32966416920996827  0.5049644505461747  1.0000
  O   O169      1.0  0.0950695670020116  0.748905823049006  0.0268016465626353  1.0000
  O   O170      1.0  0.9113856614904275  0.24747380173138347  0.9829667781684288  1.0000
  O   O171      1.0  0.4061410534248652  0.24771664605744326  0.5220473838088571  1.0000
  O   O172      1.0  0.5949030596859919  0.7512277696737899  0.4738796616302601  1.0000
  O   O173      1.0  0.0789631229017183  0.867072165326187  0.9367875049790639  1.0000
  O   O174      1.0  0.9192526736296082  0.12592287644155004  0.0633777736384711  1.0000
  O   O175      1.0  0.41628894458625254  0.1280046978509602  0.435665471951969  1.0000
  O   O176      1.0  0.5829679604901238  0.8691591696725711  0.5648877232971596  1.0000
  O   O177      1.0  0.925413034499407  0.3685613091850963  0.0656179266705186  1.0000
  O   O178      1.0  0.0822994899351051  0.6313837379480995  0.9348452269030587  1.0000
  O   O179      1.0  0.5810022795896458  0.6324568935248486  0.5626287889873833  1.0000
  O   O180      1.0  0.4175408597674511  0.3671387093048388  0.4356153256484568  1.0000
  O   O181      1.0  0.1228477907316571  0.838187199364364  0.7519124734492802  1.0000
  O   O182      1.0  0.8758621847089496  0.1598828561484514  0.24636081503999227  1.0000
  O   O183      1.0  0.3772131090881382  0.15909914170836592  0.248791862755317  1.0000
  O   O184      1.0  0.6236031500810645  0.8415738661062828  0.7533294946988075  1.0000
  O   O185      1.0  0.8748880172916246  0.34095515500617674  0.2463868184650657  1.0000
  O   O186      1.0  0.1274147580868597  0.6565668063711756  0.7492403978616176  1.0000
  O   O187      1.0  0.6244271898614168  0.6763109548697477  0.7419347949053869  1.0000
  O   O188      1.0  0.3775441024426948  0.3405726130323548  0.24794299855057408  1.0000
  O   O189      1.0  0.20019760883256096  0.7499114877705123  0.662471901478068  1.0000
  O   O190      1.0  0.7987680838194088  0.2506889654686322  0.3320849357169827  1.0000
  O   O191      1.0  0.2991761865162083  0.2500920377735685  0.16594916922883998  1.0000
  O   O192      1.0  0.7076901599872549  0.753905804559679  0.8350210640682864  1.0000
  Si  Si1       1.0  0.4245622148304167  0.0682134927050401  0.6876281406551589  1.0000
  Si  Si2       1.0  0.5754879054553876  0.9308864803274942  0.3100326884753397  1.0000
  Si  Si3       1.0  0.07629032719729069  0.9296090334119606  0.1889240357898295  1.0000
  Si  Si4       1.0  0.9250365517132355  0.07099181114167942  0.8092389806415395  1.0000
  Si  Si5       1.0  0.5734146588911244  0.572549129624227  0.30839679379702123  1.0000
  Si  Si6       1.0  0.41844464476926  0.42260999529073157  0.6964751903786972  1.0000
  Si  Si7       1.0  0.9170402800351592  0.42846841363600147  0.8158778081695165  1.0000
  Si  Si8       1.0  0.0719310175728562  0.5693688291302312  0.19087711700642598  1.0000
  Si  Si9       1.0  0.32237686181524766  0.03127754334368911  0.8416089497040103  1.0000
  Si  Si10      1.0  0.6791283895542805  0.9682888431091247  0.15731703500744687  1.0000
  Si  Si11      1.0  0.1788866668050356  0.9680470533767571  0.3418527943921369  1.0000
  Si  Si12      1.0  0.8222071754969439  0.03455545970998611  0.6549938406265889  1.0000
  Si  Si13      1.0  0.6734085461023434  0.5346124405265912  0.15627365323704479  1.0000
  Si  Si14      1.0  0.3129010193570675  0.46757956035075954  0.8446336592774775  1.0000
  Si  Si15      1.0  0.8166524039749891  0.46817875255784736  0.6587645963699773  1.0000
  Si  Si16      1.0  0.17737220362654418  0.5322612457140736  0.342278756114861  1.0000
  Si  Si17      1.0  0.2767260064578103  0.0506752277065174  0.059967214384197796  1.0000
  Si  Si18      1.0  0.7244894479919658  0.9520116907199043  0.9395588757439547  1.0000
  Si  Si19      1.0  0.222835380373139  0.9492549038562691  0.561449408537273  1.0000
  Si  Si20      1.0  0.7782141630416686  0.0499954569110328  0.435073984523504  1.0000
  Si  Si21      1.0  0.7244914156266191  0.5569400009930651  0.9425579040902625  1.0000
  Si  Si22      1.0  0.2742625486836345  0.45079310960532903  0.0658926823962481  1.0000
  Si  Si23      1.0  0.7779617444321993  0.4498044108099259  0.438168132525131  1.0000
  Si  Si24      1.0  0.22397229390108128  0.5490164545972661  0.5627950689404013  1.0000
  Si  Si25      1.0  0.12122806519499259  0.05394639973237901  0.04822695204571901  1.0000
  Si  Si26      1.0  0.8792275778207068  0.9477967053166476  0.9510899258350759  1.0000
  Si  Si27      1.0  0.3789874571321135  0.9437533747200019  0.5483897827773272  1.0000
  Si  Si28      1.0  0.6229825688204743  0.053933729882149416  0.449146868473726  1.0000
  Si  Si29      1.0  0.8777546209854733  0.5562229342844448  0.9540942878199453  1.0000
  Si  Si30      1.0  0.1180851999935838  0.44631561316855134  0.0502009208088116  1.0000
  Si  Si31      1.0  0.6235272238029901  0.4451176048438562  0.43844625643042395  1.0000
  Si  Si32      1.0  0.3799668450914066  0.5486926664212822  0.556154792456425  1.0000
  Si  Si33      1.0  0.0731104974525093  0.03901773523093931  0.8241576655096906  1.0000
  Si  Si34      1.0  0.9280999789134748  0.9597076240243343  0.1750106474127946  1.0000
  Si  Si35      1.0  0.4270374078860519  0.9588170288028062  0.3226904836660272  1.0000
  Si  Si36      1.0  0.57330326398417  0.04024317159343411  0.6744622712659202  1.0000
  Si  Si37      1.0  0.9262581345308318  0.5400800832920436  0.1752484654456646  1.0000
  Si  Si38      1.0  0.0680924086260128  0.460487274503432  0.8232898508026748  1.0000
  Si  Si39      1.0  0.4264742475372398  0.538633393278298  0.3304603223426996  1.0000
  Si  Si40      1.0  0.2013806003520726  0.0723903998628177  0.7131802652251633  1.0000
  Si  Si41      1.0  0.8002171522148546  0.9261051433799845  0.285182130137072  1.0000
  Si  Si42      1.0  0.29863556612924796  0.9271281313186627  0.21144549737902588  1.0000
  Si  Si43      1.0  0.7017772328708539  0.0741831229914934  0.7852471697505823  1.0000
  Si  Si44      1.0  0.7968652987876504  0.5723882441401619  0.2858010254989274  1.0000
  Si  Si45      1.0  0.19442030845042746  0.42820436487505054  0.7133579650028  1.0000
  Si  Si46      1.0  0.7049608181118947  0.4293983866188253  0.7974805158678401  1.0000
  Si  Si47      1.0  0.2986659490774262  0.5730617989812834  0.2162730107042073  1.0000
  Si  Si48      1.0  0.4251210348463829  0.825764343232977  0.6867937273442934  1.0000
  Si  Si49      1.0  0.57666739111052  0.17048878008754523  0.309654607184401  1.0000
  Si  Si50      1.0  0.07518347159149379  0.1715848635412057  0.18699086415391816  1.0000
  Si  Si51      1.0  0.923562384058294  0.8291537004675412  0.812866433756942  1.0000
  Si  Si52      1.0  0.5773195060879438  0.32700587372513074  0.30317850544599245  1.0000
  Si  Si53      1.0  0.42621368303890056  0.6682232511275452  0.6904898563580026  1.0000
  Si  Si54      1.0  0.926881714246127  0.672868196164596  0.8100615420334493  1.0000
  Si  Si55      1.0  0.07516884179257259  0.3280629672443852  0.18929329593453809  1.0000
  Si  Si56      1.0  0.31713200912277634  0.873486204985969  0.8320175877125519  1.0000
  Si  Si57      1.0  0.6832565903829181  0.12574430536132994  0.16222296926521967  1.0000
  Si  Si58      1.0  0.18317720736007587  0.1257710024676117  0.33323764426140556  1.0000
  Si  Si59      1.0  0.8174507657875847  0.8767960754210576  0.6644074785137238  1.0000
  Si  Si60      1.0  0.6810946308680721  0.3762971078435476  0.1615071737008619  1.0000
  Si  Si61      1.0  0.3180683694102745  0.6247129101475455  0.8349488827814389  1.0000
  Si  Si62      1.0  0.8180946834306221  0.6255822324099846  0.6661313385050099  1.0000
  Si  Si63      1.0  0.18387435902004418  0.37454691514491695  0.3347631968207375  1.0000
  Si  Si64      1.0  0.2728554845616497  0.8273318589735608  0.0363915889663408  1.0000
  Si  Si65      1.0  0.7285994524166655  0.17330275461934913  0.9589438671111238  1.0000
  Si  Si66      1.0  0.224875092990092  0.17313528717301102  0.538763359892219  1.0000
  Si  Si67      1.0  0.7748411636768167  0.8275779580815281  0.4610369569151369  1.0000
  Si  Si68      1.0  0.733808528753692  0.32787098549173577  0.9637219466512738  1.0000
  Si  Si69      1.0  0.2741020364115642  0.6712199243094696  0.03970755041433889  1.0000
  Si  Si70      1.0  0.7739635252288551  0.6719687013849771  0.46149333018531397  1.0000
  Si  Si71      1.0  0.22526414421987176  0.3279136027435813  0.539624610555742  1.0000
  Si  Si72      1.0  0.1175498640051733  0.8272780228338906  0.0254294261397524  1.0000
  Si  Si73      1.0  0.8849426977651693  0.1704768895014641  0.9756513257337793  1.0000
  Si  Si74      1.0  0.3807226177307064  0.17017112838791404  0.5244083761247906  1.0000
  Si  Si75      1.0  0.6190237359563341  0.8291589945776385  0.47452202358105894  1.0000
  Si  Si76      1.0  0.8866839539254989  0.3254825904228141  0.9810699515917496  1.0000
  Si  Si77      1.0  0.11764846070408369  0.6703154032857163  0.026858943236131895  1.0000
  Si  Si78      1.0  0.6179213429224927  0.6727941019967697  0.4731117566080091  1.0000
  Si  Si79      1.0  0.38038518847946007  0.3253630089875461  0.5232050056335981  1.0000
  Si  Si80      1.0  0.0695031968518419  0.8799974670674303  0.8173990831243793  1.0000
  Si  Si81      1.0  0.9300340911758708  0.117497793990628  0.1833559473161536  1.0000
  Si  Si82      1.0  0.4297514303089585  0.11775037494225683  0.3167564630644175  1.0000
  Si  Si83      1.0  0.5704056682252252  0.8807773573569208  0.6837858490347958  1.0000
  Si  Si84      1.0  0.9312308520665115  0.3812682345599735  0.18561345017056166  1.0000
  Si  Si85      1.0  0.0715728689575226  0.6198354881365739  0.8154542088516553  1.0000
  Si  Si86      1.0  0.5754577585265813  0.6249830771727463  0.6839938540982926  1.0000
  Si  Si87      1.0  0.4302917127189575  0.3801472677810326  0.3169302530035235  1.0000
  Si  Si88      1.0  0.19473024072518458  0.8270488580770551  0.7015986890251559  1.0000
  Si  Si89      1.0  0.8036020923537704  0.1732533456910764  0.2941082171616513  1.0000
  Si  Si90      1.0  0.304561932866086  0.17207172761723022  0.2016948857570362  1.0000
  Si  Si91      1.0  0.6973472842243222  0.8310242157599633  0.7976220723730021  1.0000
  Si  Si92      1.0  0.8034013736900473  0.3288283835178845  0.2970695608524638  1.0000
  Si  Si93      1.0  0.19862465564180656  0.6724313213463637  0.7007806945894297  1.0000
  Si  Si94      1.0  0.6966273983346257  0.6776394480472627  0.795085726954928  1.0000
  Si  Si95      1.0  0.3043921668812484  0.3276525195118502  0.20328069491843806  1.0000
  W   W1        1.0  0.5694597602473729  0.46000834670771085  0.6772815890123868  1.0000
