data_image0
_chemical_formula_structural       O192Si95Zr
_chemical_formula_sum              "O192 Si95 Zr1"
_cell_length_a       20.391112505382054
_cell_length_b       19.860864502570873
_cell_length_c       13.36814807500428
_cell_angle_alpha    89.95622766552093
_cell_angle_beta     90.00138973707257
_cell_angle_gamma    90.02340612409697

_space_group_name_H-M_alt    "P 1"
_space_group_IT_number       1

loop_
  _space_group_symop_operation_xyz
  'x, y, z'

loop_
  _atom_site_type_symbol
  _atom_site_label
  _atom_site_symmetry_multiplicity
  _atom_site_fract_x
  _atom_site_fract_y
  _atom_site_fract_z
  _atom_site_occupancy
  O   O1        1.0  0.5028727396030553  0.07328663729739789  0.7068296994309733  1.0000
  O   O2        1.0  0.4965688314811554  0.9268603896070445  0.2913433723208494  1.0000
  O   O3        1.0  0.9973945947015015  0.9272704538924739  0.20850392980966004  1.0000
  O   O4        1.0  0.0029712399169618  0.0680084082480868  0.7867259983712678  1.0000
  O   O5        1.0  0.4960523015464129  0.5728062099023873  0.298115954954664  1.0000
  O   O6        1.0  0.4869636546317062  0.4169227794060778  0.7331509085561176  1.0000
  O   O7        1.0  0.9972511130413174  0.4294483484714038  0.802447716296423  1.0000
  O   O8        1.0  0.9938653186696789  0.5740061623251935  0.2130184680223077  1.0000
  O   O9        1.0  0.3875112923308286  0.0667242640763027  0.7959040408508826  1.0000
  O   O10       1.0  0.6119568468669857  0.9365264294279972  0.2030976629831203  1.0000
  O   O11       1.0  0.1131121339363917  0.9324924472409631  0.295917067844842  1.0000
  O   O12       1.0  0.8863876900593503  0.0688632137791366  0.7012329578945201  1.0000
  O   O13       1.0  0.6084373496014819  0.5677225787703497  0.2012956461494354  1.0000
  O   O14       1.0  0.3648234072911667  0.42327416484431685  0.7939947974521319  1.0000
  O   O15       1.0  0.8845585095215531  0.42950133524348183  0.7066454096537778  1.0000
  O   O16       1.0  0.1102230331811129  0.5635350971229597  0.2943597337935043  1.0000
  O   O17       1.0  0.4017572703039365  0.1394888036508835  0.6311785419233561  1.0000
  O   O18       1.0  0.5990762608524024  0.8633939201325007  0.36765132072907125  1.0000
  O   O19       1.0  0.097753508710959  0.8607837533211884  0.1313446115746369  1.0000
  O   O20       1.0  0.9062893596677459  0.1381981360584789  0.86635641125037  1.0000
  O   O21       1.0  0.5988642017485033  0.6388736102869591  0.36772490999351737  1.0000
  O   O22       1.0  0.3952087543565476  0.35628699138135456  0.6299308254504526  1.0000
  O   O23       1.0  0.8990511745224906  0.35792015455075993  0.8728906509830384  1.0000
  O   O24       1.0  0.0953168566105597  0.636288110314378  0.1306668185034713  1.0000
  O   O25       1.0  0.40598377320568385  0.0054285274312262  0.6206936273685981  1.0000
  O   O26       1.0  0.5913777072898942  0.997440125349795  0.37756885460107165  1.0000
  O   O27       1.0  0.0944054148938465  0.9952910367201242  0.12207130852865261  1.0000
  O   O28       1.0  0.9039809583996555  0.0040289612078855  0.8740608423588256  1.0000
  O   O29       1.0  0.5959335986866799  0.504593726932546  0.3762375962413107  1.0000
  O   O30       1.0  0.4027115993487614  0.4911550398454115  0.6307710185100035  1.0000
  O   O31       1.0  0.8937957265527515  0.492063361265123  0.8813137710323214  1.0000
  O   O32       1.0  0.0834531690694605  0.5026335272506508  0.11851627262803428  1.0000
  O   O33       1.0  0.3219416744037505  0.038886433358777006  0.962303972845093  1.0000
  O   O34       1.0  0.6776047958997835  0.9616725884164746  0.036813496069216  1.0000
  O   O35       1.0  0.1766503952607824  0.9619792294680234  0.4631366374713916  1.0000
  O   O36       1.0  0.8225183535119261  0.0396178291130486  0.5342306272598739  1.0000
  O   O37       1.0  0.675469872337995  0.5412761630389503  0.0364146696436527  1.0000
  O   O38       1.0  0.3147446899261149  0.4643382599637734  0.965269982427119  1.0000
  O   O39       1.0  0.8248426628740059  0.4640062853894721  0.5364333240845708  1.0000
  O   O40       1.0  0.1775452711628444  0.540727018433827  0.4608009962666908  1.0000
  O   O41       1.0  0.3190521144658133  0.9542543401264729  0.8050371044808621  1.0000
  O   O42       1.0  0.6848662137038549  0.0468628728458163  0.191592259496334  1.0000
  O   O43       1.0  0.1784445177404095  0.0467080155159374  0.3068944610805911  1.0000
  O   O44       1.0  0.8215875071787868  0.9549887258271682  0.6912564897274031  1.0000
  O   O45       1.0  0.6744280387193798  0.4540771048833545  0.19024442177164552  1.0000
  O   O46       1.0  0.3157078139967459  0.5458146290340566  0.8056359340219895  1.0000
  O   O47       1.0  0.8253198098872574  0.5469532618534942  0.694657465731809  1.0000
  O   O48       1.0  0.1818232381433046  0.4541474538588342  0.3055066732824169  1.0000
  O   O49       1.0  0.2564969331663138  0.07029315860917279  0.7993953333019787  1.0000
  O   O50       1.0  0.7426795405830424  0.9285530924202495  0.2004797532991356  1.0000
  O   O51       1.0  0.24422829340872307  0.9319962463451134  0.30121839742721596  1.0000
  O   O52       1.0  0.7548062362171005  0.0690104813565496  0.6960051224461558  1.0000
  O   O53       1.0  0.7390615106212884  0.5688292234229606  0.20347220470843638  1.0000
  O   O54       1.0  0.2369743249082376  0.4388578357905364  0.8112818520012277  1.0000
  O   O55       1.0  0.7539965474191732  0.4352978436273977  0.6949511584938015  1.0000
  O   O56       1.0  0.2405086013271383  0.5728431343316797  0.2964951115012066  1.0000
  O   O57       1.0  0.2909444549779187  0.12612282275091016  0.1040410056736286  1.0000
  O   O58       1.0  0.7094261366502619  0.8761789577926639  0.8943660619167911  1.0000
  O   O59       1.0  0.20707313713207312  0.8756050397741173  0.6054190712670277  1.0000
  O   O60       1.0  0.7915478426791035  0.12480411800615059  0.3903665752996189  1.0000
  O   O61       1.0  0.7039836393108494  0.626884819508569  0.892835714615144  1.0000
  O   O62       1.0  0.2913255864527711  0.3753833082292844  0.107654469394186  1.0000
  O   O63       1.0  0.798521635278808  0.374639029907029  0.3971149487666848  1.0000
  O   O64       1.0  0.21250645259426104  0.6267997400866283  0.6029305088024339  1.0000
  O   O65       1.0  0.19893606996593463  0.0446779034401616  0.028185609906033898  1.0000
  O   O66       1.0  0.800983668982006  0.95652652646116  0.9738012662593647  1.0000
  O   O67       1.0  0.299004434767731  0.9581606134749584  0.5309196623890319  1.0000
  O   O68       1.0  0.7004152077550663  0.0418946264936613  0.4652228004180682  1.0000
  O   O69       1.0  0.7996953873984969  0.555495969018634  0.9810268778784453  1.0000
  O   O70       1.0  0.1972441029878006  0.46044347117820666  0.048599524094463  1.0000
  O   O71       1.0  0.7034141122272181  0.45673236785462235  0.4637204329054915  1.0000
  O   O72       1.0  0.3002347193070344  0.5404062658242975  0.5306709731788759  1.0000
  O   O73       1.0  0.2940615087731143  0.9961336522098506  0.14426492689894999  1.0000
  O   O74       1.0  0.7075949649476053  0.0062184669158062  0.8562572966269534  1.0000
  O   O75       1.0  0.2028380271681514  0.005528038088580901  0.6453679066018287  1.0000
  O   O76       1.0  0.797590026772175  0.9942622581109171  0.352674627017361  1.0000
  O   O77       1.0  0.7145535110453052  0.4962770534146936  0.8598808068096248  1.0000
  O   O78       1.0  0.3001707921712197  0.5048138271748693  0.1511642599668032  1.0000
  O   O79       1.0  0.8001031521557415  0.5037485873704731  0.3513546655731059  1.0000
  O   O80       1.0  0.2002171720203018  0.49735067176355024  0.6427143012065364  1.0000
  O   O81       1.0  0.10728567400714038  0.1279778037694399  0.0979218258906467  1.0000
  O   O82       1.0  0.8924063958246934  0.8725848491207217  0.9049531384076526  1.0000
  O   O83       1.0  0.3910581285205018  0.8737945895893666  0.5958983881719525  1.0000
  O   O84       1.0  0.6091860299417061  0.1283156821131653  0.4022894039612717  1.0000
  O   O85       1.0  0.8951449448542962  0.6265613042743716  0.8985764686335339  1.0000
  O   O86       1.0  0.10389984489971679  0.37179263827328757  0.09649720005715191  1.0000
  O   O87       1.0  0.6170447625795409  0.371831235665071  0.3851715242677901  1.0000
  O   O88       1.0  0.39376438963251753  0.6232842206489994  0.5996256266184304  1.0000
  O   O89       1.0  0.0804255193522604  0.0493606149498839  0.9443692772253822  1.0000
  O   O90       1.0  0.9199605615987938  0.9545751343339293  0.054678267453141395  1.0000
  O   O91       1.0  0.41520255853507554  0.9525271516592918  0.4412921964811826  1.0000
  O   O92       1.0  0.5853613934413735  0.04891060498637479  0.5577955366498308  1.0000
  O   O93       1.0  0.921185453059231  0.5488255452475115  0.0530927082508218  1.0000
  O   O94       1.0  0.0903512091982386  0.44899721603265746  0.9374688002734695  1.0000
  O   O95       1.0  0.5869081729669636  0.4396736738782748  0.5479122472756999  1.0000
  O   O96       1.0  0.41951846238670704  0.5404792878201932  0.4509976522006405  1.0000
  O   O97       1.0  0.1293062999701297  0.0803286114718581  0.7658638016604251  1.0000
  O   O98       1.0  0.8703191919964135  0.9186707268994004  0.23125002573096476  1.0000
  O   O99       1.0  0.3703813707640861  0.9204183169984316  0.2601955773836119  1.0000
  O   O100      1.0  0.6286227901448791  0.07763049272908061  0.7402280832046279  1.0000
  O   O101      1.0  0.8668198025622509  0.5807833493288084  0.2271465701035111  1.0000
  O   O102      1.0  0.1182312208740609  0.418834290854648  0.7461011105704902  1.0000
  O   O103      1.0  0.6383510997669838  0.40657208466712047  0.7708733444072893  1.0000
  O   O104      1.0  0.3691027045824235  0.5796370379655782  0.2767451349771206  1.0000
  O   O105      1.0  0.0789133566659154  0.9596929381773482  0.795890583757476  1.0000
  O   O106      1.0  0.924482394160996  0.03828624038220759  0.210642694478758  1.0000
  O   O107      1.0  0.4253569793871079  0.0390474441201646  0.2893036014311367  1.0000
  O   O108      1.0  0.5714412494966534  0.9596434511331812  0.7063800727134637  1.0000
  O   O109      1.0  0.9234015565473118  0.4612106975083708  0.2041187503010245  1.0000
  O   O110      1.0  0.0721008244554328  0.5389611359800895  0.79281385240766  1.0000
  O   O111      1.0  0.5756507270701914  0.5484132052480825  0.7159693877078914  1.0000
  O   O112      1.0  0.4259003469945079  0.46007960201079445  0.2920063395163864  1.0000
  O   O113      1.0  0.2125339170824166  0.1398479952592895  0.6476739977087469  1.0000
  O   O114      1.0  0.7881842514790797  0.8598611258824573  0.35212777751540253  1.0000
  O   O115      1.0  0.283364442388726  0.861946038492137  0.1458854228233405  1.0000
  O   O116      1.0  0.7162499849960892  0.1401679638319941  0.8503087752154059  1.0000
  O   O117      1.0  0.7858083498258954  0.637823598162255  0.3535543194590531  1.0000
  O   O118      1.0  0.2183107002794298  0.3648746132537625  0.6470388021045639  1.0000
  O   O119      1.0  0.7462180463084744  0.36531305552373217  0.8622197421136738  1.0000
  O   O120      1.0  0.2923777497855781  0.6396857870762289  0.1478129330157781  1.0000
  O   O121      1.0  0.4973541353696214  0.8488831408830587  0.7089422061160088  1.0000
  O   O122      1.0  0.5017445170186298  0.1468709038781957  0.2893614526482414  1.0000
  O   O123      1.0  0.002177609181689  0.1448397597498342  0.21566392207363297  1.0000
  O   O124      1.0  0.9964413518840001  0.8563606033989188  0.7840453481646074  1.0000
  O   O125      1.0  0.5035934192451265  0.3534927189978406  0.2864840557039758  1.0000
  O   O126      1.0  0.49855625154995903  0.6561170580725817  0.7133816190541657  1.0000
  O   O127      1.0  0.9999587204567068  0.649428650322715  0.7837869798829897  1.0000
  O   O128      1.0  0.0034436092581333  0.3559088594407496  0.22552422471670142  1.0000
  O   O129      1.0  0.380463500650042  0.8372809246858155  0.787905223977379  1.0000
  O   O130      1.0  0.6175555660109854  0.1599869704681832  0.20730772376814877  1.0000
  O   O131      1.0  0.119961962995091  0.1654052223688992  0.2884000441521077  1.0000
  O   O132      1.0  0.8782773486014056  0.8357693459732789  0.7140509919813522  1.0000
  O   O133      1.0  0.6167720167169627  0.3336706562886305  0.19618881369783941  1.0000
  O   O134      1.0  0.3810121743958898  0.6613385219541958  0.7892304831347982  1.0000
  O   O135      1.0  0.8821142845660245  0.6666644244286644  0.7093370239020678  1.0000
  O   O136      1.0  0.1225659525013249  0.3351023678981741  0.2871503576943754  1.0000
  O   O137      1.0  0.4169816533019012  0.7497981331166794  0.6487119098205398  1.0000
  O   O138      1.0  0.5776778237809977  0.24968432569315188  0.3412454258551736  1.0000
  O   O139      1.0  0.0714187232280728  0.25038479035825056  0.1542879555336289  1.0000
  O   O140      1.0  0.9265808476067986  0.7508543982342707  0.8485439330116411  1.0000
  O   O141      1.0  0.3158269383879767  0.8669237011750285  0.9539001606567523  1.0000
  O   O142      1.0  0.6859966149071843  0.1354058302192607  0.042367861708036594  1.0000
  O   O143      1.0  0.1825749714825799  0.1352076553520485  0.4549276458573289  1.0000
  O   O144      1.0  0.8180979546729666  0.8660094555495008  0.5445107193263049  1.0000
  O   O145      1.0  0.6917365118119924  0.3681105520135968  0.042948227606488705  1.0000
  O   O146      1.0  0.3163556753938781  0.6333957049858439  0.954567494259211  1.0000
  O   O147      1.0  0.8168310424886017  0.6327887119876755  0.5453359289209725  1.0000
  O   O148      1.0  0.1821976931557397  0.367895344749665  0.4558000092686595  1.0000
  O   O149      1.0  0.2498789431798731  0.8419481090973452  0.7872388440998115  1.0000
  O   O150      1.0  0.7481398014591105  0.1626048735092525  0.210501562884281  1.0000
  O   O151      1.0  0.2502775071488184  0.1569922527397039  0.2886493863020475  1.0000
  O   O152      1.0  0.7480102112871121  0.8462184453280803  0.7082314589673157  1.0000
  O   O153      1.0  0.7458622802905704  0.3445630248578124  0.2204741332910902  1.0000
  O   O154      1.0  0.2508363346359497  0.6608775441273078  0.7881187080680646  1.0000
  O   O155      1.0  0.7523102797565032  0.6570804322745969  0.7134137574134675  1.0000
  O   O156      1.0  0.2520106332256519  0.3426448297187086  0.2918592633055332  1.0000
  O   O157      1.0  0.2950007491665977  0.750464275365446  0.0431053718214664  1.0000
  O   O158      1.0  0.7108241631150464  0.2519375065421813  0.952436368835193  1.0000
  O   O159      1.0  0.2019974829312287  0.25152040554439875  0.5475988430826386  1.0000
  O   O160      1.0  0.7963540424502793  0.7492282783365191  0.4564577645486633  1.0000
  O   O161      1.0  0.195299859820323  0.833736443069615  0.0057854883010704  1.0000
  O   O162      1.0  0.8077300191962333  0.16574766285806317  0.9884450210517257  1.0000
  O   O163      1.0  0.3021393385835566  0.1678010293892236  0.5100710420728931  1.0000
  O   O164      1.0  0.6976194380697225  0.834258093430355  0.48979238748659537  1.0000
  O   O165      1.0  0.8131250858576469  0.3242791188937462  0.016940515076172  1.0000
  O   O166      1.0  0.1970927697806216  0.6636117218216357  0.015199026214227  1.0000
  O   O167      1.0  0.6964110928693756  0.6662728246098198  0.4925590315015515  1.0000
  O   O168      1.0  0.3019196801557911  0.3307394656465921  0.5011329895889327  1.0000
  O   O169      1.0  0.0955122806034477  0.7483537136376025  0.0257277311086767  1.0000
  O   O170      1.0  0.9142664052169363  0.2461990194136644  0.9788258465485409  1.0000
  O   O171      1.0  0.4056183663241139  0.24842009081886987  0.5161952613948249  1.0000
  O   O172      1.0  0.5956549556589269  0.7510669335456874  0.47327045669074586  1.0000
  O   O173      1.0  0.0787471442673583  0.8659878582375695  0.935903463536237  1.0000
  O   O174      1.0  0.920852540122977  0.1258739372178851  0.0628238249370533  1.0000
  O   O175      1.0  0.41523205570386623  0.12726573870278138  0.4351405586363698  1.0000
  O   O176      1.0  0.5833811916128259  0.8691238933501045  0.5642151099368362  1.0000
  O   O177      1.0  0.9310795640895076  0.3666500535905436  0.06420870097444528  1.0000
  O   O178      1.0  0.0839848041266114  0.6308989817029774  0.9333568524186127  1.0000
  O   O179      1.0  0.5801979066113474  0.6331639320750289  0.5636500330175636  1.0000
  O   O180      1.0  0.418506434985647  0.3689533001400116  0.4352858638662612  1.0000
  O   O181      1.0  0.12249870331469788  0.8388235567487567  0.7504683810835752  1.0000
  O   O182      1.0  0.8757885392264244  0.15954502395387798  0.24484157444118107  1.0000
  O   O183      1.0  0.376819239288738  0.15946112706096138  0.24852061762933927  1.0000
  O   O184      1.0  0.6224276332738604  0.8409542587048077  0.7526910415977351  1.0000
  O   O185      1.0  0.8752209930577224  0.3406721824713194  0.2420573537618844  1.0000
  O   O186      1.0  0.1249649945116709  0.6566100547279617  0.7459101224363471  1.0000
  O   O187      1.0  0.6251075499130685  0.6704736408836446  0.744134765801523  1.0000
  O   O188      1.0  0.3782743602577088  0.3394695253635991  0.24906810366423998  1.0000
  O   O189      1.0  0.1999273318271247  0.7505449759376622  0.6636628358575304  1.0000
  O   O190      1.0  0.8016661441375246  0.2506240213571125  0.33380728684908445  1.0000
  O   O191      1.0  0.298783474990043  0.2502804975698384  0.1668877948105492  1.0000
  O   O192      1.0  0.7056688565930657  0.7526111919140139  0.8338856545225987  1.0000
  Si  Si1       1.0  0.4244531989645794  0.07083700973614128  0.687983451292297  1.0000
  Si  Si2       1.0  0.5748752407816553  0.9312772496661886  0.3107084900280846  1.0000
  Si  Si3       1.0  0.0756941627329902  0.929362808231604  0.1883763132393005  1.0000
  Si  Si4       1.0  0.9248924109176252  0.0692328197906629  0.807911943131109  1.0000
  Si  Si5       1.0  0.57489982111439  0.570546598432523  0.3118723784103048  1.0000
  Si  Si6       1.0  0.4117381345262222  0.4223717363975425  0.6962818753993278  1.0000
  Si  Si7       1.0  0.9187658867116223  0.427727370106901  0.8167888973651245  1.0000
  Si  Si8       1.0  0.0714469806782409  0.5686512718263438  0.1882375798491019  1.0000
  Si  Si9       1.0  0.3213778287729684  0.0324431934968809  0.8413489640209206  1.0000
  Si  Si10      1.0  0.6791773520901374  0.968337989527894  0.157616066790651  1.0000
  Si  Si11      1.0  0.1781151042873547  0.9682220931675046  0.3422838591225191  1.0000
  Si  Si12      1.0  0.8212378730511325  0.0332156027928512  0.655085150588825  1.0000
  Si  Si13      1.0  0.6745538353213146  0.5329734249104519  0.1570159587095416  1.0000
  Si  Si14      1.0  0.3079646546480016  0.46849524571706574  0.8449447989056442  1.0000
  Si  Si15      1.0  0.8224878693398467  0.46895302558366436  0.6572984212326992  1.0000
  Si  Si16      1.0  0.1775354443623416  0.5326548124805413  0.34018890270204255  1.0000
  Si  Si17      1.0  0.2759426725225099  0.0515632127407717  0.0598154711948496  1.0000
  Si  Si18      1.0  0.7243920783110497  0.9500824585169997  0.9400403202917493  1.0000
  Si  Si19      1.0  0.22203057800175013  0.9502039804089439  0.5615065887609088  1.0000
  Si  Si20      1.0  0.777467843088468  0.0502314240183923  0.4351887411952204  1.0000
  Si  Si21      1.0  0.7239346651326581  0.5551122380898057  0.9421071704143184  1.0000
  Si  Si22      1.0  0.2751744295852482  0.4510050821147942  0.0686551031271016  1.0000
  Si  Si23      1.0  0.7809712143802314  0.44962191992321987  0.43714622028384964  1.0000
  Si  Si24      1.0  0.2231656958721039  0.5514012923057084  0.559186518490043  1.0000
  Si  Si25      1.0  0.1207468344163475  0.054385369311524115  0.04852757835917739  1.0000
  Si  Si26      1.0  0.8789041871118058  0.9468921606711427  0.9516848807201612  1.0000
  Si  Si27      1.0  0.3773630154156309  0.9475057229609202  0.5473730329442895  1.0000
  Si  Si28      1.0  0.622138956114063  0.0542556979072098  0.45085913741891326  1.0000
  Si  Si29      1.0  0.8772888369417446  0.5557397275908211  0.9526674988397719  1.0000
  Si  Si30      1.0  0.11899003629278788  0.44585586870498367  0.049992205290873  1.0000
  Si  Si31      1.0  0.6258327724294149  0.44340173839268626  0.4424865694620537  1.0000
  Si  Si32      1.0  0.3782835486184117  0.549152050514814  0.5536655519157462  1.0000
  Si  Si33      1.0  0.0728654185735003  0.0388791404869357  0.8244698890483836  1.0000
  Si  Si34      1.0  0.9279701323657428  0.960098131391381  0.1752441227198817  1.0000
  Si  Si35      1.0  0.426793794915895  0.9601964755886737  0.3217430869103471  1.0000
  Si  Si36      1.0  0.5723182295371928  0.0390868745709185  0.6767097806852477  1.0000
  Si  Si37      1.0  0.9261199106909807  0.5404662047012604  0.1737671190188373  1.0000
  Si  Si38      1.0  0.069628429138885  0.4595200534536186  0.821475416862079  1.0000
  Si  Si39      1.0  0.4275017485203226  0.5377618790198584  0.3302344362210909  1.0000
  Si  Si40      1.0  0.20039430206258446  0.0729056623139665  0.7135667522300203  1.0000
  Si  Si41      1.0  0.7996750169464446  0.9264803758804937  0.285108600245382  1.0000
  Si  Si42      1.0  0.2980205674349676  0.9284525590323517  0.2118583177135095  1.0000
  Si  Si43      1.0  0.7017772888040567  0.07258185698576221  0.7864510658659577  1.0000
  Si  Si44      1.0  0.7977051163579222  0.5720133001235161  0.2849473313338656  1.0000
  Si  Si45      1.0  0.1934499143811939  0.42981221605885944  0.7100743277148908  1.0000
  Si  Si46      1.0  0.7132058072776435  0.42578782386545827  0.7986375102927011  1.0000
  Si  Si47      1.0  0.3004369246378235  0.5734310227357845  0.2168954641089711  1.0000
  Si  Si48      1.0  0.4220958344495656  0.8278098769366415  0.6848441945940255  1.0000
  Si  Si49      1.0  0.5764036954711937  0.17068271203453358  0.3104669062513358  1.0000
  Si  Si50      1.0  0.0750360771206098  0.17191051366935384  0.18833542363382907  1.0000
  Si  Si51      1.0  0.9238265751982033  0.8291589678795976  0.8134744655314327  1.0000
  Si  Si52      1.0  0.577945125128661  0.3271357452186215  0.30265245433026267  1.0000
  Si  Si53      1.0  0.4227530238486764  0.6722514861493846  0.6868161910660796  1.0000
  Si  Si54      1.0  0.9260742027722189  0.6731463985374355  0.8104832942965015  1.0000
  Si  Si55      1.0  0.0749838368792216  0.328500742530359  0.1901576186730227  1.0000
  Si  Si56      1.0  0.3163366331134088  0.8747592925245806  0.8330099978501967  1.0000
  Si  Si57      1.0  0.6839779274109965  0.1263660611282428  0.1631376390539836  1.0000
  Si  Si58      1.0  0.1828865392716258  0.1261611321256318  0.3342693882058387  1.0000
  Si  Si59      1.0  0.8167112955011557  0.8754618556286051  0.6650372564308457  1.0000
  Si  Si60      1.0  0.6823332635563847  0.37492563878422336  0.16326022234034807  1.0000
  Si  Si61      1.0  0.3159912074278204  0.6254507124584592  0.8339181000823293  1.0000
  Si  Si62      1.0  0.8190356902394564  0.6261218705554338  0.6662084050932655  1.0000
  Si  Si63      1.0  0.1844728865908343  0.37481121850731747  0.3346052319488499  1.0000
  Si  Si64      1.0  0.2719588916408698  0.8281566182721102  0.0375641252133081  1.0000
  Si  Si65      1.0  0.7307808693459451  0.17309603511752591  0.9584643270090547  1.0000
  Si  Si66      1.0  0.2252885041724609  0.1737803180215659  0.5400444336703523  1.0000
  Si  Si67      1.0  0.7745021245251397  0.8272882897740912  0.4605401186923934  1.0000
  Si  Si68      1.0  0.7400920950577078  0.3268966911756733  0.9684684756915476  1.0000
  Si  Si69      1.0  0.2744757597838374  0.6719634989068413  0.0405069269011013  1.0000
  Si  Si70      1.0  0.7732254411935525  0.6715253993713062  0.46148985967377143  1.0000
  Si  Si71      1.0  0.22633438625181798  0.3288179106109136  0.5389443306271009  1.0000
  Si  Si72      1.0  0.1170604055833806  0.8269605796335253  0.025067278673209  1.0000
  Si  Si73      1.0  0.8867848648491002  0.1694053072779576  0.9740784312594186  1.0000
  Si  Si74      1.0  0.381014790295541  0.1707554667864569  0.5236357116727093  1.0000
  Si  Si75      1.0  0.6190553677561216  0.8291870248199521  0.4735176014084724  1.0000
  Si  Si76      1.0  0.8896370368870655  0.323909301762162  0.9821995029228172  1.0000
  Si  Si77      1.0  0.11819688916514891  0.6700680736409669  0.0261410052495801  1.0000
  Si  Si78      1.0  0.6179777431100413  0.6725795339859936  0.47418134298902015  1.0000
  Si  Si79      1.0  0.3802104419354961  0.3258716014085202  0.5203653922419378  1.0000
  Si  Si80      1.0  0.0694266585763217  0.8799959444972756  0.8167976386485567  1.0000
  Si  Si81      1.0  0.9304841694371209  0.11751042397192632  0.1831535657158852  1.0000
  Si  Si82      1.0  0.42950141780754836  0.1184926711610977  0.3159657760396882  1.0000
  Si  Si83      1.0  0.5690747097141562  0.8794609861318664  0.6829751290875763  1.0000
  Si  Si84      1.0  0.9327420089212628  0.381326890106043  0.18441350033711862  1.0000
  Si  Si85      1.0  0.0707464153948607  0.6191212291150114  0.8146334186516843  1.0000
  Si  Si86      1.0  0.5702570753315834  0.6270906827748457  0.6845503782558199  1.0000
  Si  Si87      1.0  0.4312810672151223  0.38027381555485656  0.3160934172903958  1.0000
  Si  Si88      1.0  0.1947603153858708  0.8277459466635135  0.7019750514855134  1.0000
  Si  Si89      1.0  0.8045414229837234  0.17345759007200182  0.2948453389513297  1.0000
  Si  Si90      1.0  0.304289674576794  0.1723121857317106  0.20210057051178187  1.0000
  Si  Si91      1.0  0.6959093902264749  0.8297318014695517  0.7968842809711664  1.0000
  Si  Si92      1.0  0.8053377642848052  0.3284951931234185  0.2975060400436519  1.0000
  Si  Si93      1.0  0.19688771074395722  0.6728443145048955  0.7003167388707575  1.0000
  Si  Si94      1.0  0.6968423232826728  0.675616964086397  0.7960806980407521  1.0000
  Si  Si95      1.0  0.3051916726592845  0.3276948048478189  0.2040701885972669  1.0000
  Zr  Zr1       1.0  0.5716240490608676  0.4518167186206911  0.6907021943338968  1.0000
