# generated using pymatgen
data_al-fum
_symmetry_space_group_name_H-M   'P 1'
_cell_length_a   6.68497767
_cell_length_b   13.23132384
_cell_length_c   13.96153453
_cell_angle_alpha   90.00000000
_cell_angle_beta   129.55735560
_cell_angle_gamma   90.00000000
_symmetry_Int_Tables_number   1
_chemical_formula_structural   Al4 H12 C16 O20
_chemical_formula_sum   'O20 C16 H12 Al4'
_cell_volume   952.10254445
_cell_formula_units_Z   6
loop_
 _symmetry_equiv_pos_site_id
 _symmetry_equiv_pos_as_xyz
  1  'x, y, z'
loop_
 _atom_site_type_symbol
 _atom_site_label
 _atom_site_symmetry_multiplicity
 _atom_site_fract_x
 _atom_site_fract_y
 _atom_site_fract_z
 _atom_site_occupancy
 _atom_site_charge
 O  O0  1  0.15084217  0.49977773  0.92525940  1  -0.996983
 O  O1  1  0.23322491  0.39663900  0.11482170  1  -0.596176
 O  O2  1  0.57373815  0.39512565  0.11482780  1  -0.592661
 O  O3  1  0.42597552  0.10332731  0.38425429  1  -0.594788
 O  O4  1  0.76774314  0.10309102  0.38579221  1  -0.598347
 O  O5  1  0.84915786  0.99977775  0.57474060  1  -0.996983
 O  O6  1  0.76677511  0.89663900  0.38517831  1  -0.596176
 O  O7  1  0.42626185  0.89512565  0.38517220  1  -0.592661
 O  O8  1  0.57402448  0.60332733  0.11574571  1  -0.594789
 O  O9  1  0.23225686  0.60309099  0.11420779  1  -0.598347
 O  O10  1  0.84915786  0.50022224  0.07474060  1  -0.996982
 O  O11  1  0.76677511  0.60336100  0.88517831  1  -0.596176
 O  O12  1  0.42626185  0.60487435  0.88517223  1  -0.592661
 O  O13  1  0.57402448  0.89667267  0.61574574  1  -0.594788
 O  O14  1  0.23225686  0.89690901  0.61420776  1  -0.598347
 O  O15  1  0.15084217  0.00022227  0.42525940  1  -0.996982
 O  O16  1  0.23322491  0.10336100  0.61482169  1  -0.596176
 O  O17  1  0.57373815  0.10487435  0.61482777  1  -0.592661
 O  O18  1  0.42597552  0.39667267  0.88425426  1  -0.594789
 O  O19  1  0.76774314  0.39690898  0.88579224  1  -0.598347
 C  C20  1  0.44482498  0.36110142  0.14657202  1  0.675050
 C  C21  1  0.55738709  0.27170105  0.22969926  1  -0.167069
 C  C22  1  0.44042476  0.22674403  0.26851595  1  -0.179043
 C  C23  1  0.55416148  0.13798198  0.35236008  1  0.684790
 C  C24  1  0.55517505  0.86110142  0.35342797  1  0.675052
 C  C25  1  0.44261294  0.77170105  0.27030072  1  -0.167069
 C  C26  1  0.55957521  0.72674403  0.23148405  1  -0.179043
 C  C27  1  0.44583852  0.63798200  0.14763990  1  0.684792
 C  C28  1  0.55517505  0.63889858  0.85342797  1  0.675049
 C  C29  1  0.44261294  0.72829895  0.77030075  1  -0.167067
 C  C30  1  0.55957521  0.77325597  0.73148402  1  -0.179044
 C  C31  1  0.44583852  0.86201800  0.64763989  1  0.684790
 C  C32  1  0.44482498  0.13889856  0.64657203  1  0.675051
 C  C33  1  0.55738709  0.22829894  0.72969925  1  -0.167067
 C  C34  1  0.44042476  0.27325597  0.76851598  1  -0.179043
 C  C35  1  0.55416148  0.36201803  0.85236011  1  0.684792
 H  H36  1  0.25838177  0.74356046  0.24170425  1  0.138739
 H  H37  1  0.25641413  0.24479202  0.73991629  1  0.144125
 H  H38  1  0.03560968  0.48093799  0.83839260  1  0.437574
 H  H39  1  0.74161823  0.24356048  0.25829575  1  0.138739
 H  H40  1  0.74358590  0.74479200  0.76008371  1  0.144125
 H  H41  1  0.96439033  0.98093799  0.66160740  1  0.437573
 H  H42  1  0.74161823  0.25643954  0.75829575  1  0.138735
 H  H43  1  0.74358590  0.75520800  0.26008371  1  0.144123
 H  H44  1  0.96439033  0.51906201  0.16160742  1  0.437573
 H  H45  1  0.25838177  0.75643954  0.74170425  1  0.138735
 H  H46  1  0.25641413  0.25520797  0.23991629  1  0.144123
 H  H47  1  0.03560968  0.01906201  0.33839257  1  0.437573
 Al  Al48  1  0.50000000  0.50000000  0.00000000  1  1.642905
 Al  Al49  1  0.50000000  0.00000000  0.50000000  1  1.642905
 Al  Al50  1  0.00000000  0.50000000  0.00000000  1  1.646677
 Al  Al51  1  0.00000000  0.00000000  0.50000000  1  1.646677
