# generated using pymatgen
data_cau-10-och3
_symmetry_space_group_name_H-M   'P 1'
_cell_length_a   21.41277315
_cell_length_b   21.41277315
_cell_length_c   10.01233996
_cell_angle_alpha   90.00000000
_cell_angle_beta   90.00000000
_cell_angle_gamma   90.00000000
_symmetry_Int_Tables_number   1
_chemical_formula_structural   Al16 H112 C144 O96
_chemical_formula_sum   'Al16 O96 C144 H112'
_cell_volume   4590.72649578
_cell_formula_units_Z   6
loop_
 _symmetry_equiv_pos_site_id
 _symmetry_equiv_pos_as_xyz
  1  'x, y, z'
loop_
 _atom_site_type_symbol
 _atom_site_label
 _atom_site_symmetry_multiplicity
 _atom_site_fract_x
 _atom_site_fract_y
 _atom_site_fract_z
 _atom_site_occupancy
 _atom_site_charge
 Al  Al0  1  0.24218971  0.07196262  0.29454290  1  1.632280
 Al  Al1  1  0.75781029  0.92803739  0.70545710  1  1.632280
 Al  Al2  1  0.25781029  0.92803739  0.79454290  1  1.632280
 Al  Al3  1  0.74218971  0.07196262  0.20545710  1  1.632280
 Al  Al4  1  0.67803739  0.49218971  0.54454290  1  1.632280
 Al  Al5  1  0.32196261  0.50781029  0.45545710  1  1.632280
 Al  Al6  1  0.82196261  0.50781029  0.04454290  1  1.632280
 Al  Al7  1  0.17803739  0.49218971  0.95545710  1  1.632280
 Al  Al8  1  0.74218971  0.57196261  0.79454290  1  1.632280
 Al  Al9  1  0.25781029  0.42803739  0.20545710  1  1.632280
 Al  Al10  1  0.75781029  0.42803739  0.29454290  1  1.632280
 Al  Al11  1  0.24218971  0.57196261  0.70545710  1  1.632280
 Al  Al12  1  0.17803739  0.99218971  0.04454290  1  1.632280
 Al  Al13  1  0.82196261  0.00781029  0.95545710  1  1.632280
 Al  Al14  1  0.32196261  0.00781029  0.54454290  1  1.632280
 Al  Al15  1  0.67803739  0.99218971  0.45545710  1  1.632280
 O  O16  1  0.15399781  0.06659069  0.32789570  1  -0.601342
 O  O17  1  0.84600216  0.93340933  0.67210433  1  -0.601342
 O  O18  1  0.34600219  0.93340933  0.82789567  1  -0.601342
 O  O19  1  0.65399784  0.06659069  0.17210430  1  -0.601342
 O  O20  1  0.68340933  0.40399781  0.57789567  1  -0.601342
 O  O21  1  0.31659070  0.59600216  0.42210430  1  -0.601342
 O  O22  1  0.81659067  0.59600216  0.07789570  1  -0.601342
 O  O23  1  0.18340930  0.40399781  0.92210433  1  -0.601342
 O  O24  1  0.65399784  0.56659067  0.82789567  1  -0.601342
 O  O25  1  0.34600219  0.43340930  0.17210430  1  -0.601342
 O  O26  1  0.84600216  0.43340930  0.32789570  1  -0.601342
 O  O27  1  0.15399781  0.56659067  0.67210433  1  -0.601342
 O  O28  1  0.18340930  0.90399784  0.07789570  1  -0.601342
 O  O29  1  0.81659067  0.09600219  0.92210433  1  -0.601342
 O  O30  1  0.31659070  0.09600219  0.57789567  1  -0.601342
 O  O31  1  0.68340933  0.90399784  0.42210430  1  -0.601342
 O  O32  1  0.32947195  0.08073364  0.26205181  1  -0.589536
 O  O33  1  0.67052805  0.91926633  0.73794816  1  -0.589536
 O  O34  1  0.17052805  0.91926633  0.76205184  1  -0.589536
 O  O35  1  0.82947195  0.08073364  0.23794819  1  -0.589536
 O  O36  1  0.66926633  0.57947195  0.51205184  1  -0.589536
 O  O37  1  0.33073364  0.42052805  0.48794819  1  -0.589536
 O  O38  1  0.83073367  0.42052805  0.01205181  1  -0.589536
 O  O39  1  0.16926636  0.57947195  0.98794816  1  -0.589536
 O  O40  1  0.82947195  0.58073367  0.76205184  1  -0.589536
 O  O41  1  0.17052805  0.41926636  0.23794819  1  -0.589536
 O  O42  1  0.67052805  0.41926636  0.26205181  1  -0.589536
 O  O43  1  0.32947195  0.58073367  0.73794816  1  -0.589536
 O  O44  1  0.16926636  0.07947195  0.01205181  1  -0.589536
 O  O45  1  0.83073367  0.92052805  0.98794816  1  -0.589536
 O  O46  1  0.33073364  0.92052805  0.51205184  1  -0.589536
 O  O47  1  0.66926633  0.07947195  0.48794819  1  -0.589536
 O  O48  1  0.22842170  0.13353196  0.15990646  1  -0.577987
 O  O49  1  0.77157827  0.86646802  0.84009354  1  -0.577987
 O  O50  1  0.27157830  0.86646802  0.65990646  1  -0.577987
 O  O51  1  0.72842173  0.13353196  0.34009354  1  -0.577987
 O  O52  1  0.61646802  0.47842170  0.40990646  1  -0.577987
 O  O53  1  0.38353198  0.52157827  0.59009354  1  -0.577987
 O  O54  1  0.88353198  0.52157827  0.90990646  1  -0.577987
 O  O55  1  0.11646804  0.47842170  0.09009354  1  -0.577987
 O  O56  1  0.72842173  0.63353198  0.65990646  1  -0.577987
 O  O57  1  0.27157830  0.36646802  0.34009354  1  -0.577987
 O  O58  1  0.77157827  0.36646802  0.15990646  1  -0.577987
 O  O59  1  0.22842170  0.63353198  0.84009354  1  -0.577987
 O  O60  1  0.11646804  0.97842173  0.90990646  1  -0.577987
 O  O61  1  0.88353198  0.02157830  0.09009354  1  -0.577987
 O  O62  1  0.38353198  0.02157830  0.40990646  1  -0.577987
 O  O63  1  0.61646802  0.97842173  0.59009354  1  -0.577987
 O  O64  1  0.24998746  0.13704622  0.42349538  1  -0.584067
 O  O65  1  0.75001257  0.86295378  0.57650464  1  -0.584068
 O  O66  1  0.25001254  0.86295378  0.92349536  1  -0.584068
 O  O67  1  0.74998743  0.13704622  0.07650462  1  -0.584068
 O  O68  1  0.61295378  0.49998746  0.67349536  1  -0.584068
 O  O69  1  0.38704622  0.50001257  0.32650462  1  -0.584067
 O  O70  1  0.88704622  0.50001257  0.17349538  1  -0.584068
 O  O71  1  0.11295378  0.49998746  0.82650464  1  -0.584068
 O  O72  1  0.74998743  0.63704622  0.92349536  1  -0.584068
 O  O73  1  0.25001254  0.36295378  0.07650462  1  -0.584068
 O  O74  1  0.75001257  0.36295378  0.42349538  1  -0.584068
 O  O75  1  0.24998746  0.63704622  0.57650464  1  -0.584068
 O  O76  1  0.11295378  0.99998743  0.17349538  1  -0.584068
 O  O77  1  0.88704622  0.00001254  0.82650464  1  -0.584067
 O  O78  1  0.38704622  0.00001254  0.67349536  1  -0.584067
 O  O79  1  0.61295378  0.99998743  0.32650462  1  -0.584068
 O  O80  1  0.25600806  0.00929987  0.42113208  1  -0.996027
 O  O81  1  0.74399197  0.99070011  0.57886792  1  -0.996027
 O  O82  1  0.24399194  0.99070011  0.92113208  1  -0.996027
 O  O83  1  0.75600803  0.00929987  0.07886792  1  -0.996027
 O  O84  1  0.74070011  0.50600803  0.67113208  1  -0.996026
 O  O85  1  0.25929986  0.49399194  0.32886792  1  -0.996027
 O  O86  1  0.75929989  0.49399194  0.17113208  1  -0.996027
 O  O87  1  0.24070014  0.50600803  0.82886792  1  -0.996027
 O  O88  1  0.75600803  0.50929989  0.92113208  1  -0.996027
 O  O89  1  0.24399194  0.49070014  0.07886792  1  -0.996027
 O  O90  1  0.74399197  0.49070014  0.42113208  1  -0.996027
 O  O91  1  0.25600806  0.50929989  0.57886792  1  -0.996027
 O  O92  1  0.24070014  0.00600806  0.17113208  1  -0.996026
 O  O93  1  0.75929989  0.99399197  0.82886792  1  -0.996027
 O  O94  1  0.25929986  0.99399197  0.67113208  1  -0.996026
 O  O95  1  0.74070011  0.00600806  0.32886792  1  -0.996027
 O  O96  1  0.46393367  0.11105399  0.87531118  1  -0.168013
 O  O97  1  0.53606630  0.88894600  0.12468883  1  -0.168014
 O  O98  1  0.03606633  0.88894600  0.37531118  1  -0.168014
 O  O99  1  0.96393370  0.11105399  0.62468882  1  -0.168013
 O  O100  1  0.63894600  0.71393370  0.12531118  1  -0.168013
 O  O101  1  0.36105400  0.28606633  0.87468882  1  -0.168014
 O  O102  1  0.86105400  0.28606633  0.62531118  1  -0.168014
 O  O103  1  0.13894600  0.71393370  0.37468882  1  -0.168013
 O  O104  1  0.96393370  0.61105400  0.37531118  1  -0.168013
 O  O105  1  0.03606633  0.38894600  0.62468882  1  -0.168014
 O  O106  1  0.53606630  0.38894600  0.87531118  1  -0.168014
 O  O107  1  0.46393367  0.61105400  0.12468883  1  -0.168013
 O  O108  1  0.13894600  0.21393367  0.62531118  1  -0.168014
 O  O109  1  0.86105400  0.78606630  0.37468882  1  -0.168014
 O  O110  1  0.36105400  0.78606630  0.12531118  1  -0.168014
 O  O111  1  0.63894600  0.21393367  0.87468882  1  -0.168013
 C  C112  1  0.54507773  0.05106353  0.17567908  1  -0.022358
 C  C113  1  0.45492227  0.94893647  0.82432091  1  -0.022358
 C  C114  1  0.95492227  0.94893647  0.67567909  1  -0.022358
 C  C115  1  0.04507773  0.05106353  0.32432091  1  -0.022358
 C  C116  1  0.69893647  0.79507773  0.42567909  1  -0.022358
 C  C117  1  0.30106353  0.20492227  0.57432091  1  -0.022358
 C  C118  1  0.80106353  0.20492227  0.92567909  1  -0.022358
 C  C119  1  0.19893647  0.79507773  0.07432092  1  -0.022358
 C  C120  1  0.04507773  0.55106353  0.67567909  1  -0.022358
 C  C121  1  0.95492227  0.44893647  0.32432091  1  -0.022358
 C  C122  1  0.45492227  0.44893647  0.17567908  1  -0.022358
 C  C123  1  0.54507773  0.55106353  0.82432091  1  -0.022358
 C  C124  1  0.19893647  0.29507773  0.92567909  1  -0.022358
 C  C125  1  0.80106353  0.70492227  0.07432092  1  -0.022358
 C  C126  1  0.30106353  0.70492227  0.42567909  1  -0.022358
 C  C127  1  0.69893647  0.29507773  0.57432091  1  -0.022358
 C  C128  1  0.42631497  0.08211617  0.08516951  1  -0.193856
 C  C129  1  0.57368503  0.91788381  0.91483049  1  -0.193856
 C  C130  1  0.07368503  0.91788381  0.58516951  1  -0.193856
 C  C131  1  0.92631497  0.08211617  0.41483049  1  -0.193856
 C  C132  1  0.66788381  0.67631497  0.33516951  1  -0.193856
 C  C133  1  0.33211619  0.32368503  0.66483049  1  -0.193856
 C  C134  1  0.83211619  0.32368503  0.83516951  1  -0.193856
 C  C135  1  0.16788383  0.67631497  0.16483049  1  -0.193856
 C  C136  1  0.92631497  0.58211619  0.58516951  1  -0.193856
 C  C137  1  0.07368503  0.41788381  0.41483049  1  -0.193856
 C  C138  1  0.57368503  0.41788381  0.08516951  1  -0.193856
 C  C139  1  0.42631497  0.58211619  0.91483049  1  -0.193856
 C  C140  1  0.16788383  0.17631497  0.83516951  1  -0.193856
 C  C141  1  0.83211619  0.82368503  0.16483049  1  -0.193856
 C  C142  1  0.33211619  0.82368503  0.33516951  1  -0.193856
 C  C143  1  0.66788381  0.17631497  0.66483049  1  -0.193856
 C  C144  1  0.60878645  0.03773354  0.22835626  1  0.638717
 C  C145  1  0.39121355  0.96226646  0.77164374  1  0.638716
 C  C146  1  0.89121355  0.96226646  0.72835626  1  0.638716
 C  C147  1  0.10878645  0.03773354  0.27164374  1  0.638717
 C  C148  1  0.71226646  0.85878645  0.47835626  1  0.638717
 C  C149  1  0.28773354  0.14121355  0.52164374  1  0.638716
 C  C150  1  0.78773354  0.14121355  0.97835626  1  0.638716
 C  C151  1  0.21226646  0.85878645  0.02164374  1  0.638717
 C  C152  1  0.10878645  0.53773354  0.72835626  1  0.638716
 C  C153  1  0.89121355  0.46226646  0.27164374  1  0.638716
 C  C154  1  0.39121355  0.46226646  0.22835626  1  0.638716
 C  C155  1  0.60878645  0.53773354  0.77164374  1  0.638716
 C  C156  1  0.21226646  0.35878645  0.97835626  1  0.638716
 C  C157  1  0.78773354  0.64121355  0.02164374  1  0.638716
 C  C158  1  0.28773354  0.64121355  0.47835626  1  0.638716
 C  C159  1  0.71226646  0.35878645  0.52164374  1  0.638716
 C  C160  1  0.51447347  0.12072297  0.78359976  1  -0.175798
 C  C161  1  0.48552653  0.87927701  0.21640026  1  -0.175798
 C  C162  1  0.98552653  0.87927701  0.28359976  1  -0.175798
 C  C163  1  0.01447347  0.12072297  0.71640024  1  -0.175798
 C  C164  1  0.62927701  0.76447347  0.03359974  1  -0.175798
 C  C165  1  0.37072296  0.23552653  0.96640024  1  -0.175798
 C  C166  1  0.87072299  0.23552653  0.53359976  1  -0.175798
 C  C167  1  0.12927704  0.76447347  0.46640024  1  -0.175798
 C  C168  1  0.01447347  0.62072299  0.28359976  1  -0.175798
 C  C169  1  0.98552653  0.37927704  0.71640024  1  -0.175798
 C  C170  1  0.48552653  0.37927704  0.78359976  1  -0.175798
 C  C171  1  0.51447347  0.62072299  0.21640026  1  -0.175798
 C  C172  1  0.12927704  0.26447347  0.53359976  1  -0.175798
 C  C173  1  0.87072299  0.73552653  0.46640024  1  -0.175799
 C  C174  1  0.37072296  0.73552653  0.03359974  1  -0.175798
 C  C175  1  0.62927701  0.26447347  0.96640024  1  -0.175798
 C  C176  1  0.53768545  0.07546512  0.04640297  1  -0.210776
 C  C177  1  0.46231455  0.92453485  0.95359705  1  -0.210776
 C  C178  1  0.96231455  0.92453485  0.54640295  1  -0.210776
 C  C179  1  0.03768545  0.07546512  0.45359705  1  -0.210776
 C  C180  1  0.67453485  0.78768545  0.29640295  1  -0.210776
 C  C181  1  0.32546512  0.21231455  0.70359705  1  -0.210776
 C  C182  1  0.82546515  0.21231455  0.79640295  1  -0.210776
 C  C183  1  0.17453488  0.78768545  0.20359703  1  -0.210776
 C  C184  1  0.03768545  0.57546515  0.54640295  1  -0.210776
 C  C185  1  0.96231455  0.42453488  0.45359705  1  -0.210776
 C  C186  1  0.46231455  0.42453488  0.04640297  1  -0.210776
 C  C187  1  0.53768545  0.57546515  0.95359705  1  -0.210776
 C  C188  1  0.17453488  0.28768545  0.79640295  1  -0.210776
 C  C189  1  0.82546515  0.71231455  0.20359703  1  -0.210776
 C  C190  1  0.32546512  0.71231455  0.29640295  1  -0.210776
 C  C191  1  0.67453485  0.28768545  0.70359705  1  -0.210776
 C  C192  1  0.49381192  0.04178576  0.25944326  1  -0.126965
 C  C193  1  0.50618808  0.95821425  0.74055674  1  -0.126965
 C  C194  1  0.00618808  0.95821425  0.75944326  1  -0.126965
 C  C195  1  0.99381192  0.04178576  0.24055674  1  -0.126965
 C  C196  1  0.70821425  0.74381192  0.50944326  1  -0.126965
 C  C197  1  0.29178575  0.25618808  0.49055674  1  -0.126965
 C  C198  1  0.79178575  0.25618808  0.00944326  1  -0.126965
 C  C199  1  0.20821425  0.74381192  0.99055674  1  -0.126965
 C  C200  1  0.99381192  0.54178575  0.75944326  1  -0.126965
 C  C201  1  0.00618808  0.45821425  0.24055674  1  -0.126965
 C  C202  1  0.50618808  0.45821425  0.25944326  1  -0.126965
 C  C203  1  0.49381192  0.54178575  0.74055674  1  -0.126965
 C  C204  1  0.20821425  0.24381192  0.00944326  1  -0.126965
 C  C205  1  0.79178575  0.75618808  0.99055674  1  -0.126965
 C  C206  1  0.29178575  0.75618808  0.50944326  1  -0.126965
 C  C207  1  0.70821425  0.24381192  0.49055674  1  -0.126965
 C  C208  1  0.37859628  0.05313089  0.30208890  1  0.637839
 C  C209  1  0.62140375  0.94686909  0.69791113  1  0.637839
 C  C210  1  0.12140372  0.94686909  0.80208887  1  0.637839
 C  C211  1  0.87859625  0.05313089  0.19791110  1  0.637839
 C  C212  1  0.69686909  0.62859625  0.55208887  1  0.637839
 C  C213  1  0.30313091  0.37140372  0.44791110  1  0.637839
 C  C214  1  0.80313091  0.37140372  0.05208890  1  0.637839
 C  C215  1  0.19686911  0.62859625  0.94791113  1  0.637839
 C  C216  1  0.87859625  0.55313091  0.80208887  1  0.637839
 C  C217  1  0.12140372  0.44686909  0.19791110  1  0.637839
 C  C218  1  0.62140375  0.44686909  0.30208890  1  0.637839
 C  C219  1  0.37859628  0.55313091  0.69791113  1  0.637839
 C  C220  1  0.19686911  0.12859628  0.05208890  1  0.637839
 C  C221  1  0.80313091  0.87140375  0.94791113  1  0.637839
 C  C222  1  0.30313091  0.87140375  0.55208887  1  0.637839
 C  C223  1  0.69686909  0.12859628  0.44791110  1  0.637839
 C  C224  1  0.43439038  0.05880684  0.21420033  1  -0.041175
 C  C225  1  0.56560962  0.94119317  0.78579966  1  -0.041175
 C  C226  1  0.06560962  0.94119317  0.71420034  1  -0.041175
 C  C227  1  0.93439038  0.05880684  0.28579966  1  -0.041175
 C  C228  1  0.69119317  0.68439038  0.46420034  1  -0.041175
 C  C229  1  0.30880683  0.31560962  0.53579966  1  -0.041175
 C  C230  1  0.80880683  0.31560962  0.96420034  1  -0.041175
 C  C231  1  0.19119317  0.68439038  0.03579967  1  -0.041175
 C  C232  1  0.93439038  0.55880683  0.71420034  1  -0.041175
 C  C233  1  0.06560962  0.44119317  0.28579966  1  -0.041175
 C  C234  1  0.56560962  0.44119317  0.21420033  1  -0.041175
 C  C235  1  0.43439038  0.55880683  0.78579966  1  -0.041175
 C  C236  1  0.19119317  0.18439038  0.96420034  1  -0.041175
 C  C237  1  0.80880683  0.81560962  0.03579967  1  -0.041175
 C  C238  1  0.30880683  0.81560962  0.46420034  1  -0.041175
 C  C239  1  0.69119317  0.18439038  0.53579966  1  -0.041175
 C  C240  1  0.47765222  0.08948085  0.99989803  1  0.248991
 C  C241  1  0.52234778  0.91051917  0.00010199  1  0.248991
 C  C242  1  0.02234778  0.91051917  0.49989801  1  0.248991
 C  C243  1  0.97765222  0.08948085  0.50010196  1  0.248991
 C  C244  1  0.66051917  0.72765222  0.24989804  1  0.248991
 C  C245  1  0.33948083  0.27234778  0.75010199  1  0.248991
 C  C246  1  0.83948083  0.27234778  0.74989801  1  0.248991
 C  C247  1  0.16051915  0.72765222  0.25010198  1  0.248991
 C  C248  1  0.97765222  0.58948083  0.49989801  1  0.248991
 C  C249  1  0.02234778  0.41051917  0.50010196  1  0.248991
 C  C250  1  0.52234778  0.41051917  0.99989803  1  0.248991
 C  C251  1  0.47765222  0.58948083  0.00010199  1  0.248991
 C  C252  1  0.16051915  0.22765222  0.74989801  1  0.248991
 C  C253  1  0.83948083  0.77234778  0.25010198  1  0.248991
 C  C254  1  0.33948083  0.77234778  0.24989804  1  0.248991
 C  C255  1  0.66051917  0.22765222  0.75010199  1  0.248991
 H  H256  1  0.50033439  0.52327910  0.64031614  1  0.128241
 H  H257  1  0.49966561  0.47672090  0.35968386  1  0.128242
 H  H258  1  0.99966561  0.47672090  0.14031614  1  0.128241
 H  H259  1  0.00033439  0.52327910  0.85968386  1  0.128242
 H  H260  1  0.22672090  0.75033439  0.89031614  1  0.128241
 H  H261  1  0.77327910  0.24966561  0.10968386  1  0.128241
 H  H262  1  0.27327910  0.24966561  0.39031614  1  0.128241
 H  H263  1  0.72672090  0.75033439  0.60968386  1  0.128241
 H  H264  1  0.00033439  0.02327910  0.14031614  1  0.128241
 H  H265  1  0.99966561  0.97672090  0.85968386  1  0.128242
 H  H266  1  0.49966561  0.97672090  0.64031614  1  0.128241
 H  H267  1  0.50033439  0.02327910  0.35968386  1  0.128242
 H  H268  1  0.72672090  0.25033439  0.39031614  1  0.128241
 H  H269  1  0.27327910  0.74966561  0.60968386  1  0.128242
 H  H270  1  0.77327910  0.74966561  0.89031614  1  0.128242
 H  H271  1  0.22672090  0.25033439  0.10968386  1  0.128242
 H  H272  1  0.66707004  0.32888277  0.76512643  1  0.126740
 H  H273  1  0.33292996  0.67111723  0.23487357  1  0.126740
 H  H274  1  0.83292996  0.67111723  0.26512643  1  0.126740
 H  H275  1  0.16707004  0.32888277  0.73487357  1  0.126740
 H  H276  1  0.42111723  0.91707004  0.01512643  1  0.126740
 H  H277  1  0.57888277  0.08292996  0.98487357  1  0.126740
 H  H278  1  0.07888277  0.08292996  0.51512643  1  0.126740
 H  H279  1  0.92111723  0.91707004  0.48487357  1  0.126740
 H  H280  1  0.16707004  0.82888277  0.26512643  1  0.126740
 H  H281  1  0.83292996  0.17111723  0.73487357  1  0.126740
 H  H282  1  0.33292996  0.17111723  0.76512643  1  0.126740
 H  H283  1  0.66707004  0.82888277  0.23487357  1  0.126740
 H  H284  1  0.92111723  0.41707004  0.51512643  1  0.126740
 H  H285  1  0.07888277  0.58292996  0.48487357  1  0.126740
 H  H286  1  0.57888277  0.58292996  0.01512643  1  0.126740
 H  H287  1  0.42111723  0.41707004  0.98487357  1  0.126740
 H  H288  1  0.34485163  0.37019885  0.69928896  1  0.132871
 H  H289  1  0.65514840  0.62980118  0.30071104  1  0.132871
 H  H290  1  0.15514837  0.62980118  0.19928896  1  0.132871
 H  H291  1  0.84485160  0.37019885  0.80071104  1  0.132871
 H  H292  1  0.37980115  0.59485160  0.94928896  1  0.132871
 H  H293  1  0.62019882  0.40514837  0.05071104  1  0.132871
 H  H294  1  0.12019885  0.40514837  0.44928896  1  0.132871
 H  H295  1  0.87980118  0.59485160  0.55071104  1  0.132871
 H  H296  1  0.84485160  0.87019882  0.19928896  1  0.132871
 H  H297  1  0.15514837  0.12980115  0.80071104  1  0.132871
 H  H298  1  0.65514840  0.12980115  0.69928896  1  0.132871
 H  H299  1  0.34485163  0.87019882  0.30071104  1  0.132871
 H  H300  1  0.87980118  0.09485163  0.44928896  1  0.132871
 H  H301  1  0.12019885  0.90514840  0.55071104  1  0.132871
 H  H302  1  0.62019882  0.90514840  0.94928896  1  0.132871
 H  H303  1  0.37980115  0.09485163  0.05071104  1  0.132871
 H  H304  1  0.61312408  0.24259863  0.05900350  1  0.126081
 H  H305  1  0.38687592  0.75740134  0.94099650  1  0.126081
 H  H306  1  0.88687592  0.75740134  0.55900350  1  0.126081
 H  H307  1  0.11312408  0.24259863  0.44099650  1  0.126081
 H  H308  1  0.50740137  0.86312408  0.30900350  1  0.126081
 H  H309  1  0.49259866  0.13687592  0.69099650  1  0.126081
 H  H310  1  0.99259863  0.13687592  0.80900350  1  0.126081
 H  H311  1  0.00740134  0.86312408  0.19099650  1  0.126081
 H  H312  1  0.11312408  0.74259866  0.55900350  1  0.126081
 H  H313  1  0.88687592  0.25740137  0.44099650  1  0.126081
 H  H314  1  0.38687592  0.25740137  0.05900350  1  0.126081
 H  H315  1  0.61312408  0.74259866  0.94099650  1  0.126081
 H  H316  1  0.00740134  0.36312408  0.80900350  1  0.126081
 H  H317  1  0.99259863  0.63687592  0.19099650  1  0.126081
 H  H318  1  0.49259866  0.63687592  0.30900350  1  0.126081
 H  H319  1  0.50740137  0.36312408  0.69099650  1  0.126081
 H  H320  1  0.59395711  0.29720002  0.92822685  1  0.096360
 H  H321  1  0.40604289  0.70279998  0.07177315  1  0.096360
 H  H322  1  0.90604289  0.70279998  0.42822685  1  0.096360
 H  H323  1  0.09395711  0.29720002  0.57177315  1  0.096360
 H  H324  1  0.45279998  0.84395711  0.17822685  1  0.096360
 H  H325  1  0.54720002  0.15604289  0.82177315  1  0.096360
 H  H326  1  0.04720002  0.15604289  0.67822685  1  0.096360
 H  H327  1  0.95279998  0.84395711  0.32177315  1  0.096360
 H  H328  1  0.09395711  0.79720002  0.42822685  1  0.096360
 H  H329  1  0.90604289  0.20279998  0.57177315  1  0.096360
 H  H330  1  0.40604289  0.20279998  0.92822685  1  0.096360
 H  H331  1  0.59395711  0.79720002  0.07177315  1  0.096360
 H  H332  1  0.95279998  0.34395711  0.67822685  1  0.096359
 H  H333  1  0.04720002  0.65604289  0.32177315  1  0.096359
 H  H334  1  0.54720002  0.65604289  0.17822685  1  0.096359
 H  H335  1  0.45279998  0.34395711  0.82177315  1  0.096359
 H  H336  1  0.67325987  0.28938241  0.98604872  1  0.097955
 H  H337  1  0.32674013  0.71061759  0.01395128  1  0.097955
 H  H338  1  0.82674013  0.71061759  0.48604872  1  0.097955
 H  H339  1  0.17325987  0.28938241  0.51395128  1  0.097955
 H  H340  1  0.46061759  0.92325987  0.23604872  1  0.097955
 H  H341  1  0.53938241  0.07674013  0.76395128  1  0.097955
 H  H342  1  0.03938241  0.07674013  0.73604872  1  0.097955
 H  H343  1  0.96061759  0.92325987  0.26395128  1  0.097955
 H  H344  1  0.17325987  0.78938241  0.48604872  1  0.097955
 H  H345  1  0.82674013  0.21061759  0.51395128  1  0.097955
 H  H346  1  0.32674013  0.21061759  0.98604872  1  0.097955
 H  H347  1  0.67325987  0.78938241  0.01395128  1  0.097955
 H  H348  1  0.96061759  0.42325987  0.73604872  1  0.097955
 H  H349  1  0.03938241  0.57674013  0.26395128  1  0.097955
 H  H350  1  0.53938241  0.57674013  0.23604872  1  0.097955
 H  H351  1  0.46061759  0.42325987  0.76395128  1  0.097955
 H  H352  1  0.21952206  0.50083003  0.52394245  1  0.421827
 H  H353  1  0.78047794  0.49916997  0.47605755  1  0.421827
 H  H354  1  0.28047794  0.49916997  0.02394245  1  0.421827
 H  H355  1  0.71952206  0.50083003  0.97605755  1  0.421827
 H  H356  1  0.24916997  0.46952206  0.77394245  1  0.421826
 H  H357  1  0.75083003  0.53047794  0.22605755  1  0.421826
 H  H358  1  0.25083003  0.53047794  0.27394245  1  0.421826
 H  H359  1  0.74916997  0.46952206  0.72605755  1  0.421826
 H  H360  1  0.71952206  0.00083003  0.02394245  1  0.421827
 H  H361  1  0.28047794  0.99916997  0.97605755  1  0.421827
 H  H362  1  0.78047794  0.99916997  0.52394245  1  0.421827
 H  H363  1  0.21952206  0.00083003  0.47605755  1  0.421827
 H  H364  1  0.74916997  0.96952206  0.27394245  1  0.421826
 H  H365  1  0.25083003  0.03047794  0.72605755  1  0.421826
 H  H366  1  0.75083003  0.03047794  0.77394245  1  0.421826
 H  H367  1  0.24916997  0.96952206  0.22605755  1  0.421826
