# generated using pymatgen
data_cau-10-h
_symmetry_space_group_name_H-M   'P 1'
_cell_length_a   21.57836127
_cell_length_b   21.58142115
_cell_length_c   10.08198977
_cell_angle_alpha   90.00259744
_cell_angle_beta   90.01978636
_cell_angle_gamma   89.98142060
_symmetry_Int_Tables_number   1
_chemical_formula_structural   Al16 H80 C128 O80
_chemical_formula_sum   'Al16 O80 C128 H80'
_cell_volume   4695.09844631
_cell_formula_units_Z   6
loop_
 _symmetry_equiv_pos_site_id
 _symmetry_equiv_pos_as_xyz
  1  'x, y, z'
loop_
 _atom_site_type_symbol
 _atom_site_label
 _atom_site_symmetry_multiplicity
 _atom_site_fract_x
 _atom_site_fract_y
 _atom_site_fract_z
 _atom_site_occupancy
 _atom_site_charge
 Al  Al0  1  0.32112594  0.00116604  0.99534536  1  1.634510
 Al  Al1  1  0.67863511  0.00156775  0.99479204  1  1.635052
 Al  Al2  1  0.17899555  0.99815973  0.49502806  1  1.635043
 Al  Al3  1  0.82099753  0.99869727  0.49481427  1  1.635182
 Al  Al4  1  0.24959837  0.07107872  0.24623684  1  1.633762
 Al  Al5  1  0.74941701  0.92889446  0.74600388  1  1.633155
 Al  Al6  1  0.25014184  0.92838484  0.74721544  1  1.633005
 Al  Al7  1  0.75041018  0.07145146  0.24592760  1  1.634591
 Al  Al8  1  0.82108926  0.49891127  0.50482098  1  1.635145
 Al  Al9  1  0.17898506  0.49837786  0.50583388  1  1.635796
 Al  Al10  1  0.67895522  0.50156157  0.00477639  1  1.635176
 Al  Al11  1  0.32134270  0.50093775  0.00549447  1  1.636441
 Al  Al12  1  0.75006153  0.57162781  0.75334603  1  1.633901
 Al  Al13  1  0.25048735  0.42852409  0.25427178  1  1.634037
 Al  Al14  1  0.75008294  0.42885765  0.25316447  1  1.634342
 Al  Al15  1  0.24950984  0.57105209  0.75510243  1  1.634624
 O  O16  1  0.25625470  0.00904056  0.11729183  1  -0.994863
 O  O17  1  0.74087703  0.99461121  0.86613763  1  -0.994470
 O  O18  1  0.24373065  0.99019473  0.61741795  1  -0.996110
 O  O19  1  0.75872321  0.00582332  0.36622646  1  -0.994739
 O  O20  1  0.24156977  0.00557970  0.36717868  1  -0.995066
 O  O21  1  0.75588522  0.99059748  0.61623748  1  -0.995763
 O  O22  1  0.25852645  0.99407615  0.86733958  1  -0.994954
 O  O23  1  0.74380503  0.00968706  0.11621935  1  -0.996425
 O  O24  1  0.75859833  0.50589253  0.63303910  1  -0.994972
 O  O25  1  0.24415096  0.49002222  0.38452538  1  -0.996068
 O  O26  1  0.74137291  0.49458924  0.13305855  1  -0.994282
 O  O27  1  0.25597017  0.50923673  0.88459233  1  -0.997181
 O  O28  1  0.74388877  0.50979933  0.88296357  1  -0.995612
 O  O29  1  0.25925393  0.49433437  0.13454211  1  -0.995217
 O  O30  1  0.75620402  0.49054015  0.38298930  1  -0.994813
 O  O31  1  0.24114186  0.50532101  0.63472054  1  -0.994755
 O  O32  1  0.38452260  0.01130218  0.12651165  1  -0.582475
 O  O33  1  0.61557854  0.99031870  0.86590789  1  -0.581181
 O  O34  1  0.11546785  0.98796109  0.62569971  1  -0.583041
 O  O35  1  0.88403727  0.00975140  0.36605383  1  -0.580986
 O  O36  1  0.23962331  0.13360467  0.37865638  1  -0.583474
 O  O37  1  0.76063408  0.86529420  0.61836936  1  -0.580333
 O  O38  1  0.25993660  0.86593596  0.88046127  1  -0.584095
 O  O39  1  0.73915451  0.13498322  0.11810247  1  -0.579720
 O  O40  1  0.11608050  0.00911579  0.36574835  1  -0.581773
 O  O41  1  0.88423693  0.98868313  0.62615267  1  -0.583089
 O  O42  1  0.38391688  0.99018310  0.86611308  1  -0.581905
 O  O43  1  0.61549063  0.01144047  0.12640079  1  -0.582293
 O  O44  1  0.26049257  0.13455963  0.11815578  1  -0.579600
 O  O45  1  0.73964683  0.86634880  0.87875079  1  -0.583256
 O  O46  1  0.23911173  0.86472528  0.61988939  1  -0.580167
 O  O47  1  0.76041018  0.13406063  0.37852015  1  -0.583787
 O  O48  1  0.88395364  0.51045416  0.63371748  1  -0.580725
 O  O49  1  0.11581675  0.48882486  0.37425753  1  -0.584623
 O  O50  1  0.61612500  0.49024017  0.13385799  1  -0.582712
 O  O51  1  0.38444726  0.51053478  0.87360740  1  -0.584480
 O  O52  1  0.73878088  0.63519918  0.88112238  1  -0.580611
 O  O53  1  0.26009735  0.36595829  0.12144635  1  -0.583164
 O  O54  1  0.76191678  0.36524306  0.38038388  1  -0.579945
 O  O55  1  0.24009002  0.63355898  0.62239377  1  -0.584416
 O  O56  1  0.61550428  0.51139210  0.87354720  1  -0.582159
 O  O57  1  0.38442301  0.48966122  0.13407651  1  -0.581798
 O  O58  1  0.88452528  0.48932078  0.37363588  1  -0.583681
 O  O59  1  0.11576098  0.50991832  0.63421446  1  -0.580247
 O  O60  1  0.75935677  0.63404920  0.62019488  1  -0.584002
 O  O61  1  0.23878729  0.36485675  0.38141787  1  -0.579919
 O  O62  1  0.74033401  0.36637583  0.12034343  1  -0.583691
 O  O63  1  0.26068468  0.63462184  0.88306585  1  -0.580297
 O  O64  1  0.33710431  0.07102711  0.28235300  1  -0.607172
 O  O65  1  0.66204624  0.92651281  0.71700047  1  -0.585500
 O  O66  1  0.16264818  0.92901213  0.78328467  1  -0.607560
 O  O67  1  0.83769526  0.07364599  0.21712947  1  -0.586004
 O  O68  1  0.17874068  0.08580761  0.53193381  1  -0.606183
 O  O69  1  0.82274830  0.91143428  0.46585831  1  -0.586247
 O  O70  1  0.32158088  0.91376009  0.03224360  1  -0.607202
 O  O71  1  0.67662517  0.08884279  0.96624230  1  -0.585522
 O  O72  1  0.16235276  0.07315511  0.21717965  1  -0.586036
 O  O73  1  0.83688867  0.92943519  0.78284095  1  -0.606651
 O  O74  1  0.33747466  0.92594984  0.71805914  1  -0.585541
 O  O75  1  0.66292690  0.07109292  0.28238258  1  -0.605934
 O  O76  1  0.32291703  0.08835852  0.96630959  1  -0.587153
 O  O77  1  0.67863787  0.91410719  0.03180864  1  -0.606757
 O  O78  1  0.17783386  0.91084083  0.46562146  1  -0.585913
 O  O79  1  0.82116525  0.08620167  0.53201354  1  -0.606654
 O  O80  1  0.83726846  0.57454774  0.78169712  1  -0.587220
 O  O81  1  0.16294099  0.42973268  0.21690977  1  -0.608192
 O  O82  1  0.66267141  0.42628459  0.28242820  1  -0.585765
 O  O83  1  0.33689623  0.57074727  0.71880069  1  -0.607088
 O  O84  1  0.67687060  0.58881579  0.03367548  1  -0.586030
 O  O85  1  0.32116508  0.41358247  0.96841480  1  -0.607230
 O  O86  1  0.82332901  0.41165402  0.53395002  1  -0.586260
 O  O87  1  0.17940019  0.58592680  0.46847248  1  -0.607020
 O  O88  1  0.66266524  0.57102922  0.71729385  1  -0.606859
 O  O89  1  0.33800958  0.42599142  0.28329595  1  -0.585211
 O  O90  1  0.83759672  0.43008079  0.21624730  1  -0.607872
 O  O91  1  0.16231524  0.57365538  0.78308671  1  -0.586142
 O  O92  1  0.82074328  0.58641259  0.46760239  1  -0.607552
 O  O93  1  0.17698904  0.41103173  0.53460791  1  -0.585359
 O  O94  1  0.67896800  0.41407165  0.96774441  1  -0.606485
 O  O95  1  0.32377403  0.58824037  0.03349023  1  -0.586187
 C  C96  1  0.44418792  0.07686611  0.43255074  1  -0.073157
 C  C97  1  0.55548255  0.92183714  0.56361729  1  -0.070391
 C  C98  1  0.05563366  0.92476367  0.93374389  1  -0.067978
 C  C99  1  0.94418879  0.07906605  0.06484331  1  -0.070381
 C  C100  1  0.17483592  0.19229158  0.68582183  1  -0.072939
 C  C101  1  0.82709231  0.80453535  0.31452418  1  -0.071196
 C  C102  1  0.33036208  0.80703858  0.18248153  1  -0.069693
 C  C103  1  0.67162622  0.19583029  0.81541353  1  -0.071786
 C  C104  1  0.05586359  0.07874315  0.06469620  1  -0.070238
 C  C105  1  0.94394287  0.92499006  0.93386549  1  -0.069619
 C  C106  1  0.44377626  0.92173902  0.56376026  1  -0.069359
 C  C107  1  0.55588543  0.07677445  0.43266753  1  -0.072986
 C  C108  1  0.32863169  0.19541573  0.81608169  1  -0.067716
 C  C109  1  0.67268803  0.80756095  0.18402343  1  -0.069113
 C  C110  1  0.17549164  0.80392519  0.31343966  1  -0.071805
 C  C111  1  0.82579244  0.19283419  0.68524001  1  -0.068740
 C  C112  1  0.94393309  0.58205896  0.93280879  1  -0.071458
 C  C113  1  0.05610372  0.42762483  0.06429920  1  -0.067435
 C  C114  1  0.55637753  0.42291819  0.43728285  1  -0.070724
 C  C115  1  0.44376820  0.57780561  0.56900996  1  -0.071593
 C  C116  1  0.67165405  0.69588195  0.18440843  1  -0.069406
 C  C117  1  0.32770803  0.30707846  0.81674836  1  -0.069004
 C  C118  1  0.82709966  0.30452809  0.68546626  1  -0.073291
 C  C119  1  0.17634873  0.69224163  0.31409457  1  -0.072048
 C  C120  1  0.55544849  0.57799970  0.56868891  1  -0.069117
 C  C121  1  0.44467033  0.42264039  0.43748670  1  -0.072452
 C  C122  1  0.94439550  0.42784323  0.06408879  1  -0.067698
 C  C123  1  0.05559047  0.58158736  0.93317626  1  -0.071250
 C  C124  1  0.82583680  0.69286183  0.31459730  1  -0.070339
 C  C125  1  0.17385971  0.30397368  0.68639914  1  -0.071975
 C  C126  1  0.67284798  0.30749659  0.81565985  1  -0.068740
 C  C127  1  0.33186977  0.69537666  0.18222333  1  -0.070345
 C  C128  1  0.44404050  0.05257471  0.30341620  1  -0.052349
 C  C129  1  0.55563524  0.94647687  0.69243610  1  -0.054906
 C  C130  1  0.05578589  0.94802062  0.80373523  1  -0.056492
 C  C131  1  0.94408269  0.05376741  0.19305666  1  -0.054341
 C  C132  1  0.19794048  0.19250148  0.55573890  1  -0.054547
 C  C133  1  0.80272694  0.80495723  0.44356640  1  -0.054622
 C  C134  1  0.30390916  0.80688369  0.05527010  1  -0.055199
 C  C135  1  0.69632484  0.19539171  0.94419508  1  -0.056266
 C  C136  1  0.05596754  0.05346432  0.19294648  1  -0.056320
 C  C137  1  0.94379067  0.94825652  0.80386778  1  -0.056004
 C  C138  1  0.44372637  0.94636272  0.69258164  1  -0.054818
 C  C139  1  0.55601815  0.05254590  0.30347816  1  -0.052495
 C  C140  1  0.30349528  0.19494731  0.94444731  1  -0.058314
 C  C141  1  0.69721234  0.80736389  0.05510710  1  -0.057155
 C  C142  1  0.19836232  0.80438547  0.44375213  1  -0.055107
 C  C143  1  0.80264383  0.19302627  0.55512805  1  -0.056633
 C  C144  1  0.94383200  0.55572819  0.80554097  1  -0.057151
 C  C145  1  0.05625837  0.44985501  0.19512149  1  -0.057032
 C  C146  1  0.55635487  0.44671124  0.30775576  1  -0.056397
 C  C147  1  0.44379533  0.55264392  0.69737528  1  -0.054700
 C  C148  1  0.69627454  0.69544215  0.05559756  1  -0.058142
 C  C149  1  0.30267989  0.30685853  0.94523199  1  -0.056987
 C  C150  1  0.80384322  0.30497923  0.55545635  1  -0.054794
 C  C151  1  0.19917757  0.69246029  0.44444426  1  -0.055615
 C  C152  1  0.55573703  0.55286756  0.69708684  1  -0.056272
 C  C153  1  0.44441580  0.44644695  0.30798071  1  -0.053809
 C  C154  1  0.94424139  0.45008464  0.19491566  1  -0.055563
 C  C155  1  0.05568806  0.55529484  0.80585071  1  -0.053762
 C  C156  1  0.80160191  0.69304479  0.44375084  1  -0.054446
 C  C157  1  0.19704495  0.30444838  0.55636270  1  -0.056440
 C  C158  1  0.69745532  0.30730661  0.94453594  1  -0.056615
 C  C159  1  0.30510150  0.69497086  0.05534507  1  -0.054272
 C  C160  1  0.38421387  0.04394718  0.23195828  1  0.630567
 C  C161  1  0.61543924  0.95540651  0.76354394  1  0.636628
 C  C162  1  0.11564410  0.95596425  0.73205187  1  0.632479
 C  C163  1  0.88427086  0.04473559  0.26383556  1  0.636297
 C  C164  1  0.20642594  0.13294474  0.48331874  1  0.630901
 C  C165  1  0.79446276  0.86490936  0.51440188  1  0.637004
 C  C166  1  0.29395225  0.86651551  0.98396411  1  0.632443
 C  C167  1  0.70495414  0.13539250  0.01464550  1  0.635780
 C  C168  1  0.11579505  0.04422423  0.26371129  1  0.638352
 C  C169  1  0.88395711  0.95644201  0.73214332  1  0.631616
 C  C170  1  0.38402647  0.95512245  0.76400370  1  0.637540
 C  C171  1  0.61582608  0.04400472  0.23196429  1  0.629641
 C  C172  1  0.29466986  0.13495103  0.01472672  1  0.637715
 C  C173  1  0.70624641  0.86693491  0.98310749  1  0.631642
 C  C174  1  0.20595606  0.86435117  0.51488876  1  0.637398
 C  C175  1  0.79371837  0.13342511  0.48308027  1  0.632003
 C  C176  1  0.88402783  0.54587541  0.73524985  1  0.638340
 C  C177  1  0.11603392  0.45704925  0.26760709  1  0.634202
 C  C178  1  0.61607026  0.45533944  0.23622694  1  0.638346
 C  C179  1  0.38405725  0.54355691  0.76871933  1  0.631900
 C  C180  1  0.70490155  0.63547475  0.98501093  1  0.637529
 C  C181  1  0.29354335  0.36645078  0.01715364  1  0.632273
 C  C182  1  0.79551565  0.36497777  0.48475844  1  0.636883
 C  C183  1  0.20720757  0.63296106  0.51724987  1  0.632735
 C  C184  1  0.61563658  0.54402715  0.76809738  1  0.630600
 C  C185  1  0.38457683  0.45492778  0.23670794  1  0.636618
 C  C186  1  0.88443833  0.45744107  0.26712657  1  0.632675
 C  C187  1  0.11556893  0.54520569  0.73596617  1  0.635693
 C  C188  1  0.79282495  0.63348425  0.51593318  1  0.632517
 C  C189  1  0.20512100  0.36447522  0.48564547  1  0.636554
 C  C190  1  0.70667168  0.36692003  0.01630745  1  0.631372
 C  C191  1  0.29550167  0.63494823  0.98557429  1  0.635813
 C  C192  1  0.50002621  0.03913698  0.23997413  1  -0.086456
 C  C193  1  0.49969218  0.96019636  0.75566601  1  -0.087228
 C  C194  1  0.99978772  0.96110332  0.73989243  1  -0.083726
 C  C195  1  0.00001758  0.03956106  0.25592846  1  -0.089026
 C  C196  1  0.21045228  0.24865834  0.49214055  1  -0.084002
 C  C197  1  0.78861523  0.74917342  0.50702324  1  -0.086602
 C  C198  1  0.28992246  0.75075969  0.99297257  1  -0.086850
 C  C199  1  0.71054605  0.25116244  0.00765197  1  -0.084825
 C  C200  1  0.28920436  0.25070379  0.00787727  1  -0.085135
 C  C201  1  0.71037742  0.75121903  0.99208778  1  -0.083915
 C  C202  1  0.21164363  0.74860632  0.50811596  1  -0.085692
 C  C203  1  0.79037892  0.24918603  0.49131575  1  -0.086687
 C  C204  1  0.99974394  0.54107248  0.74315270  1  -0.086663
 C  C205  1  0.00025153  0.46252193  0.25927047  1  -0.084006
 C  C206  1  0.50031523  0.45994469  0.24431617  1  -0.086218
 C  C207  1  0.49984546  0.53893369  0.76033350  1  -0.083826
 C  C208  1  0.50003810  0.08782409  0.49789033  1  -0.086846
 C  C209  1  0.49961401  0.91074083  0.49840740  1  -0.091528
 C  C210  1  0.99979664  0.91440536  0.99949051  1  -0.089558
 C  C211  1  0.00002477  0.09032690  0.99977462  1  -0.090384
 C  C212  1  0.16399374  0.24797139  0.75187304  1  -0.087362
 C  C213  1  0.83742316  0.74856041  0.24923730  1  -0.087819
 C  C214  1  0.34330068  0.75133590  0.24668027  1  -0.089368
 C  C215  1  0.66108598  0.25181692  0.75034469  1  -0.090099
 C  C216  1  0.33954733  0.25141915  0.75141758  1  -0.090489
 C  C217  1  0.66106066  0.75187755  0.24941108  1  -0.091383
 C  C218  1  0.16574748  0.74792415  0.24786015  1  -0.088963
 C  C219  1  0.83689813  0.24852696  0.75105379  1  -0.089078
 C  C220  1  0.99977351  0.59384234  0.99750621  1  -0.089592
 C  C221  1  0.00024791  0.41785228  0.99810433  1  -0.092097
 C  C222  1  0.50059207  0.41214407  0.50297180  1  -0.089337
 C  C223  1  0.49953547  0.58936232  0.50392049  1  -0.089407
 H  H224  1  0.49995752  0.51935575  0.85985601  1  0.129369
 H  H225  1  0.49942112  0.60791661  0.40336116  1  0.106784
 H  H226  1  0.39950845  0.58844054  0.52221303  1  0.111721
 H  H227  1  0.59958338  0.58878695  0.52161665  1  0.110619
 H  H228  1  0.50069961  0.39497559  0.60465261  1  0.106536
 H  H229  1  0.50020611  0.47873343  0.14409143  1  0.128472
 H  H230  1  0.50002384  0.02019653  0.13988248  1  0.128701
 H  H231  1  0.50004129  0.10561908  0.59907717  1  0.106774
 H  H232  1  0.60007575  0.08708473  0.48006839  1  0.111004
 H  H233  1  0.40000413  0.08728874  0.47983483  1  0.111253
 H  H234  1  0.60066514  0.41288426  0.48460801  1  0.110002
 H  H235  1  0.40049041  0.41237288  0.48495713  1  0.110237
 H  H236  1  0.16539911  0.14797937  0.73349189  1  0.110345
 H  H237  1  0.16364733  0.34805691  0.73433140  1  0.110707
 H  H238  1  0.14735118  0.24772150  0.85393577  1  0.106948
 H  H239  1  0.85364680  0.24828472  0.85307104  1  0.107196
 H  H240  1  0.66067379  0.15173206  0.76830891  1  0.112165
 H  H241  1  0.66285878  0.35180905  0.76848811  1  0.110015
 H  H242  1  0.83506857  0.14852629  0.73311413  1  0.109755
 H  H243  1  0.83740598  0.34860849  0.73331565  1  0.111842
 H  H244  1  0.64306727  0.25206953  0.64932618  1  0.107248
 H  H245  1  0.33964318  0.15132502  0.76899572  1  0.110480
 H  H246  1  0.33799017  0.35139817  0.76994556  1  0.110019
 H  H247  1  0.35792762  0.25169921  0.65072572  1  0.107249
 H  H248  1  0.22867652  0.24888959  0.39145261  1  0.128834
 H  H249  1  0.49969346  0.97961141  0.85534185  1  0.129249
 H  H250  1  0.59970437  0.91135565  0.51652277  1  0.110441
 H  H251  1  0.39952708  0.91120757  0.51678735  1  0.109623
 H  H252  1  0.49960039  0.89286283  0.39727883  1  0.106370
 H  H253  1  0.89975619  0.91514339  0.98167804  1  0.109573
 H  H254  1  0.99981257  0.89749627  0.10136250  1  0.107171
 H  H255  1  0.99976281  0.97934487  0.63920707  1  0.128685
 H  H256  1  0.90022845  0.41830368  0.01584159  1  0.109277
 H  H257  1  0.00025345  0.48000025  0.36057473  1  0.129428
 H  H258  1  0.00024295  0.40182258  0.89557854  1  0.107571
 H  H259  1  0.00000713  0.01969236  0.35520002  1  0.130510
 H  H260  1  0.89994658  0.08991466  0.01817030  1  0.110178
 H  H261  1  0.00002144  0.10878336  0.89913670  1  0.107375
 H  H262  1  0.76952996  0.74938711  0.60697602  1  0.128977
 H  H263  1  0.83796939  0.84863088  0.26735443  1  0.111070
 H  H264  1  0.83571563  0.64855435  0.26728776  1  0.109757
 H  H265  1  0.85513967  0.74834162  0.14799762  1  0.105479
 H  H266  1  0.66080263  0.65178594  0.23160600  1  0.111055
 H  H267  1  0.66264435  0.85187281  0.23114716  1  0.110354
 H  H268  1  0.64310464  0.75213228  0.35045692  1  0.107255
 H  H269  1  0.26912294  0.75055661  0.89456995  1  0.129312
 H  H270  1  0.72965248  0.75097176  0.89230276  1  0.129280
 H  H271  1  0.16533080  0.84800993  0.26545705  1  0.110682
 H  H272  1  0.16687787  0.64793044  0.26642974  1  0.110135
 H  H273  1  0.14928490  0.74766994  0.14563711  1  0.107713
 H  H274  1  0.22965686  0.74884350  0.60900106  1  0.129224
 H  H275  1  0.89968346  0.59327346  0.97899028  1  0.111413
 H  H276  1  0.99969162  0.52048235  0.64455772  1  0.129075
 H  H277  1  0.99980173  0.61318983  0.09738378  1  0.107092
 H  H278  1  0.09985300  0.59241537  0.97972561  1  0.111239
 H  H279  1  0.09981066  0.91471899  0.98147819  1  0.110127
 H  H280  1  0.10010488  0.08933583  0.01784972  1  0.110616
 H  H281  1  0.10026424  0.41793021  0.01620672  1  0.109352
 H  H282  1  0.26955720  0.25043175  0.10733096  1  0.129649
 H  H283  1  0.72985063  0.25091148  0.10744312  1  0.129419
 H  H284  1  0.72064012  0.49790989  0.58398697  1  0.418635
 H  H285  1  0.74821777  0.52867109  0.33457084  1  0.418860
 H  H286  1  0.77936963  0.50257528  0.08420020  1  0.418318
 H  H287  1  0.25234307  0.52826164  0.33669010  1  0.419350
 H  H288  1  0.27920456  0.49712651  0.58624776  1  0.418447
 H  H289  1  0.25136738  0.02833732  0.66603870  1  0.419960
 H  H290  1  0.22060621  0.00176484  0.91671494  1  0.419095
 H  H291  1  0.77891559  0.00269935  0.91482166  1  0.418519
 H  H292  1  0.74781931  0.02877080  0.66441933  1  0.419529
 H  H293  1  0.75170973  0.47170921  0.83427226  1  0.419607
 H  H294  1  0.24794989  0.47113615  0.83610416  1  0.420403
 H  H295  1  0.22120035  0.50251622  0.08594892  1  0.419015
 H  H296  1  0.27955694  0.99790046  0.41635490  1  0.419017
 H  H297  1  0.24880470  0.97098075  0.16632467  1  0.418949
 H  H298  1  0.72066220  0.99776680  0.41478331  1  0.418661
 H  H299  1  0.75179867  0.97151252  0.16446237  1  0.419575
 H  H300  1  0.34095648  0.85133790  0.22907953  1  0.110725
 H  H301  1  0.36301246  0.75155064  0.34625007  1  0.106066
 H  H302  1  0.34376120  0.65126323  0.22823395  1  0.110856
 H  H303  1  0.77223884  0.24943232  0.39053754  1  0.129734
