# generated using pymatgen
data_cau-8-odb
_symmetry_space_group_name_H-M   'P 1'
_cell_length_a   12.81142087
_cell_length_b   12.81878503
_cell_length_c   50.58180281
_cell_angle_alpha   89.98029240
_cell_angle_beta   89.96771438
_cell_angle_gamma   89.94962866
_symmetry_Int_Tables_number   1
_chemical_formula_structural   Al16 H140 C224 O96
_chemical_formula_sum   'Al16 O96 C224 H140'
_cell_volume   8306.88512438
_cell_formula_units_Z   6
loop_
 _symmetry_equiv_pos_site_id
 _symmetry_equiv_pos_as_xyz
  1  'x, y, z'
loop_
 _atom_site_type_symbol
 _atom_site_label
 _atom_site_symmetry_multiplicity
 _atom_site_fract_x
 _atom_site_fract_y
 _atom_site_fract_z
 _atom_site_occupancy
 _atom_site_charge
 Al  Al0  1  0.50039793  0.75007882  0.12499246  1  1.629939
 Al  Al1  1  0.00014365  0.74994141  0.62493276  1  1.631773
 Al  Al2  1  0.24998380  0.99971799  0.37501154  1  1.630702
 Al  Al3  1  0.24997866  0.50088370  0.87488558  1  1.632633
 Al  Al4  1  0.74948329  0.50015360  0.87497982  1  1.631385
 Al  Al5  1  0.75013453  0.99974939  0.37504990  1  1.631620
 Al  Al6  1  0.00036293  0.24990694  0.62516726  1  1.631112
 Al  Al7  1  0.49965021  0.24965005  0.12478011  1  1.633600
 Al  Al8  1  0.49994635  0.99983690  0.13379101  1  1.629850
 Al  Al9  1  0.99995128  0.49995620  0.63387103  1  1.632247
 Al  Al10  1  0.00007256  0.99996603  0.38384940  1  1.631588
 Al  Al11  1  0.49972474  0.49976336  0.88373098  1  1.630429
 Al  Al12  1  0.49976431  0.50031172  0.11609252  1  1.631349
 Al  Al13  1  0.99995980  0.99996821  0.61605294  1  1.635145
 Al  Al14  1  0.99930712  0.50032646  0.86616269  1  1.631068
 Al  Al15  1  0.50019820  0.99991459  0.36621238  1  1.631721
 O  O16  1  0.56647426  0.87279340  0.13375092  1  -0.982007
 O  O17  1  0.93400315  0.62737537  0.63386444  1  -0.984455
 O  O18  1  0.12730812  0.06599436  0.38389406  1  -0.984696
 O  O19  1  0.37239037  0.43381609  0.88346846  1  -0.983699
 O  O20  1  0.43379652  0.62748888  0.11623580  1  -0.981605
 O  O21  1  0.06601016  0.87260422  0.61596323  1  -0.986066
 O  O22  1  0.87233526  0.43404919  0.86617147  1  -0.985024
 O  O23  1  0.62744491  0.06594508  0.36618829  1  -0.985090
 O  O24  1  0.06621931  0.37261285  0.63400398  1  -0.983995
 O  O25  1  0.43371709  0.12719898  0.13372295  1  -0.984307
 O  O26  1  0.62684909  0.56618939  0.88389024  1  -0.984583
 O  O27  1  0.87285558  0.93383982  0.38396192  1  -0.984505
 O  O28  1  0.93420999  0.12744194  0.61624199  1  -0.985400
 O  O29  1  0.56524586  0.37265531  0.11614717  1  -0.985532
 O  O30  1  0.37287782  0.93400286  0.36612417  1  -0.984418
 O  O31  1  0.12675098  0.56594235  0.86594991  1  -0.984601
 O  O32  1  0.55452121  0.69439048  0.15749893  1  -0.582250
 O  O33  1  0.94692342  0.80580786  0.65758555  1  -0.587629
 O  O34  1  0.30572123  0.05346340  0.40761493  1  -0.587064
 O  O35  1  0.19415919  0.44680006  0.90746201  1  -0.586413
 O  O36  1  0.44688147  0.80570296  0.09233175  1  -0.586676
 O  O37  1  0.05326959  0.69396425  0.59231879  1  -0.586722
 O  O38  1  0.69434627  0.44697976  0.84232814  1  -0.590834
 O  O39  1  0.80575943  0.05299407  0.34239051  1  -0.587023
 O  O40  1  0.05454752  0.19367831  0.65778397  1  -0.584997
 O  O41  1  0.44505554  0.30519515  0.15753811  1  -0.580247
 O  O42  1  0.80544247  0.55375999  0.90759834  1  -0.586329
 O  O43  1  0.69431401  0.94655728  0.40770130  1  -0.587320
 O  O44  1  0.94685652  0.30570675  0.59251318  1  -0.586634
 O  O45  1  0.55334027  0.19432349  0.09223925  1  -0.589025
 O  O46  1  0.19432523  0.94646924  0.34243365  1  -0.589207
 O  O47  1  0.30527881  0.55486547  0.84227959  1  -0.588615
 O  O48  1  0.59720078  0.53117209  0.14485129  1  -0.632773
 O  O49  1  0.90153248  0.96797785  0.64467644  1  -0.630416
 O  O50  1  0.46780376  0.09902985  0.39464426  1  -0.629922
 O  O51  1  0.03202181  0.40135324  0.89458618  1  -0.631072
 O  O52  1  0.40132700  0.96782572  0.10524827  1  -0.629448
 O  O53  1  0.09826636  0.53162806  0.60520531  1  -0.629792
 O  O54  1  0.53253298  0.40100098  0.85531169  1  -0.626508
 O  O55  1  0.96801106  0.09832081  0.35523302  1  -0.630806
 O  O56  1  0.09894618  0.03161680  0.64452724  1  -0.628101
 O  O57  1  0.40010794  0.46818157  0.14476779  1  -0.619614
 O  O58  1  0.96769006  0.59881959  0.89464114  1  -0.630735
 O  O59  1  0.53188743  0.90179387  0.39486733  1  -0.630731
 O  O60  1  0.90109685  0.46782941  0.60536691  1  -0.629836
 O  O61  1  0.59854369  0.03212896  0.10517453  1  -0.628291
 O  O62  1  0.03217253  0.90110773  0.35537210  1  -0.630680
 O  O63  1  0.46817993  0.59815723  0.85504783  1  -0.629762
 O  O64  1  0.55008401  0.90195615  0.34068863  1  -0.570809
 O  O65  1  0.94967741  0.59807549  0.84051893  1  -0.571938
 O  O66  1  0.09812237  0.04996430  0.59050184  1  -0.571345
 O  O67  1  0.40145252  0.45052997  0.09059894  1  -0.570072
 O  O68  1  0.44954790  0.59787304  0.90927748  1  -0.569133
 O  O69  1  0.04990842  0.90195591  0.40946148  1  -0.570071
 O  O70  1  0.90161076  0.45036984  0.65941578  1  -0.570091
 O  O71  1  0.59816306  0.04968177  0.15930716  1  -0.569548
 O  O72  1  0.04866811  0.40178519  0.84042839  1  -0.562759
 O  O73  1  0.45061425  0.09834807  0.34067624  1  -0.568765
 O  O74  1  0.59825985  0.54951427  0.09058626  1  -0.570580
 O  O75  1  0.90159775  0.95050677  0.59057936  1  -0.571049
 O  O76  1  0.95026911  0.09831574  0.40939055  1  -0.570445
 O  O77  1  0.54920779  0.40189681  0.90937110  1  -0.569983
 O  O78  1  0.40218863  0.95067636  0.15942299  1  -0.572730
 O  O79  1  0.09833137  0.54985234  0.65934520  1  -0.571487
 O  O80  1  0.71386148  0.87488591  0.35589340  1  -0.600132
 O  O81  1  0.78595290  0.62513847  0.85579278  1  -0.598586
 O  O82  1  0.12515335  0.21335983  0.60591408  1  -0.601159
 O  O83  1  0.37479082  0.28660636  0.10572425  1  -0.602552
 O  O84  1  0.28572914  0.62518687  0.89414305  1  -0.602386
 O  O85  1  0.21379354  0.87506059  0.39424819  1  -0.599461
 O  O86  1  0.87565577  0.28625338  0.64439329  1  -0.599765
 O  O87  1  0.62403135  0.21369457  0.14417653  1  -0.601681
 O  O88  1  0.21353103  0.37612798  0.85548675  1  -0.591907
 O  O89  1  0.28648475  0.12461557  0.35583397  1  -0.598469
 O  O90  1  0.62500864  0.71332429  0.10571337  1  -0.599086
 O  O91  1  0.87519394  0.78663284  0.60577590  1  -0.599961
 O  O92  1  0.78637818  0.12472971  0.39418550  1  -0.600089
 O  O93  1  0.71328303  0.37546210  0.89423601  1  -0.600442
 O  O94  1  0.37612696  0.78689773  0.14421923  1  -0.598034
 O  O95  1  0.12507658  0.71355056  0.64408664  1  -0.601195
 O  O96  1  0.68013289  0.51686758  0.26919060  1  -0.229233
 O  O97  1  0.81932663  0.98327346  0.76904344  1  -0.228311
 O  O98  1  0.48264093  0.18252938  0.51892703  1  -0.228090
 O  O99  1  0.01678156  0.31953918  0.01901538  1  -0.229172
 O  O100  1  0.31892597  0.98276385  0.98089681  1  -0.229698
 O  O101  1  0.17979187  0.51629430  0.48079009  1  -0.228954
 O  O102  1  0.51651003  0.31959035  0.73092597  1  -0.229587
 O  O103  1  0.98174823  0.18327348  0.23096456  1  -0.228436
 O  O104  1  0.19401834  0.01335059  0.76820626  1  -0.212444
 O  O105  1  0.32238535  0.48849718  0.27081842  1  -0.212934
 O  O106  1  0.98292272  0.68181434  0.01893783  1  -0.228800
 O  O107  1  0.51668098  0.81915763  0.51918794  1  -0.229023
 O  O108  1  0.81628399  0.48172083  0.48111865  1  -0.227971
 O  O109  1  0.68031948  0.01673174  0.98079334  1  -0.229245
 O  O110  1  0.01834764  0.81679541  0.23111063  1  -0.229013
 O  O111  1  0.48350415  0.68096312  0.73071458  1  -0.227575
 C  C112  1  0.59042959  0.60371965  0.16215134  1  0.630456
 C  C113  1  0.90890399  0.89588793  0.66206100  1  0.628636
 C  C114  1  0.39565740  0.09179724  0.41203402  1  0.628362
 C  C115  1  0.10412638  0.40882710  0.91197577  1  0.630094
 C  C116  1  0.40864485  0.89569290  0.08788117  1  0.628729
 C  C117  1  0.09090109  0.60373878  0.58782346  1  0.628543
 C  C118  1  0.60446764  0.40836714  0.83788696  1  0.630390
 C  C119  1  0.89576797  0.09107880  0.33789113  1  0.629349
 C  C120  1  0.09278045  0.10349659  0.66196337  1  0.628877
 C  C121  1  0.40730954  0.39534005  0.16185692  1  0.628807
 C  C122  1  0.89547711  0.59181002  0.91203073  1  0.629028
 C  C123  1  0.60412176  0.90891582  0.41221084  1  0.630667
 C  C124  1  0.90834677  0.39556638  0.58803119  1  0.628408
 C  C125  1  0.59131735  0.10415089  0.08778405  1  0.629398
 C  C126  1  0.10436597  0.90812411  0.33797888  1  0.629029
 C  C127  1  0.39584039  0.59158074  0.83772267  1  0.631807
 C  C128  1  0.62316269  0.58116149  0.18965931  1  -0.080405
 C  C129  1  0.87525518  0.91825614  0.68951097  1  -0.081379
 C  C130  1  0.41787140  0.12603137  0.43943163  1  -0.079963
 C  C131  1  0.08178897  0.37527198  0.93944198  1  -0.082079
 C  C132  1  0.37468791  0.91799971  0.06045067  1  -0.080392
 C  C133  1  0.12418169  0.58131007  0.56034744  1  -0.081247
 C  C134  1  0.58226266  0.37440318  0.81047251  1  -0.082501
 C  C135  1  0.91779858  0.12518773  0.31045924  1  -0.080535
 C  C136  1  0.12885402  0.08033223  0.68920416  1  -0.077103
 C  C137  1  0.37312181  0.41710939  0.18915543  1  -0.074231
 C  C138  1  0.91784672  0.62596809  0.93942584  1  -0.081147
 C  C139  1  0.58177067  0.87530660  0.43966474  1  -0.081761
 C  C140  1  0.87387626  0.41749175  0.56062036  1  -0.080720
 C  C141  1  0.62505405  0.08180622  0.06034656  1  -0.082274
 C  C142  1  0.08240667  0.87369439  0.31060154  1  -0.082301
 C  C143  1  0.41835523  0.62489381  0.81025106  1  -0.080118
 C  C144  1  0.63349210  0.47822577  0.19875872  1  -0.066130
 C  C145  1  0.86450481  0.02123157  0.69853702  1  -0.062478
 C  C146  1  0.52087401  0.13686971  0.44844947  1  -0.062462
 C  C147  1  0.97877839  0.36439349  0.94849117  1  -0.061589
 C  C148  1  0.36423145  0.02095675  0.05137725  1  -0.061602
 C  C149  1  0.13483681  0.47832906  0.55131703  1  -0.061412
 C  C150  1  0.47942301  0.35950944  0.80169274  1  -0.055995
 C  C151  1  0.02073660  0.13545894  0.30132399  1  -0.061825
 C  C152  1  0.13835679  0.97701874  0.69805686  1  -0.061674
 C  C153  1  0.35637109  0.51197550  0.20135389  1  0.070924
 C  C154  1  0.02088938  0.63679041  0.94842439  1  -0.061623
 C  C155  1  0.47872454  0.86479146  0.44870456  1  -0.061379
 C  C156  1  0.86233258  0.52033291  0.55154601  1  -0.063300
 C  C157  1  0.63622153  0.97883259  0.05134660  1  -0.060229
 C  C158  1  0.97949153  0.86210152  0.30156231  1  -0.064499
 C  C159  1  0.52144652  0.63428611  0.80116972  1  -0.063014
 C  C160  1  0.65239763  0.45799395  0.22533920  1  -0.206309
 C  C161  1  0.84568620  0.04166530  0.72510545  1  -0.208086
 C  C162  1  0.54124421  0.15578023  0.47500976  1  -0.207608
 C  C163  1  0.95834616  0.34574814  0.97507075  1  -0.207013
 C  C164  1  0.34556698  0.04130377  0.02479848  1  -0.208051
 C  C165  1  0.15339297  0.45791934  0.52473526  1  -0.208218
 C  C166  1  0.45888472  0.34132925  0.77511165  1  -0.207654
 C  C167  1  0.04082581  0.15481551  0.27476097  1  -0.205866
 C  C168  1  0.16003003  0.95572144  0.72445642  1  -0.201926
 C  C169  1  0.34069379  0.53801406  0.22491567  1  -0.204840
 C  C170  1  0.04134363  0.65558459  0.97498570  1  -0.207927
 C  C171  1  0.45825838  0.84602842  0.47527650  1  -0.207745
 C  C172  1  0.84301616  0.54047499  0.52498924  1  -0.203919
 C  C173  1  0.65482522  0.95838308  0.02477082  1  -0.207981
 C  C174  1  0.95938945  0.84279905  0.27501290  1  -0.205324
 C  C175  1  0.54194937  0.65291775  0.77459342  1  -0.204935
 C  C176  1  0.66274904  0.54162366  0.24294173  1  0.269793
 C  C177  1  0.83612177  0.95819460  0.74281695  1  0.272027
 C  C178  1  0.45767043  0.16550799  0.49269547  1  0.271305
 C  C179  1  0.04184973  0.33641983  0.99277509  1  0.272071
 C  C180  1  0.33570065  0.95777596  0.00714259  1  0.271831
 C  C181  1  0.16288752  0.54137260  0.50702122  1  0.272132
 C  C182  1  0.54199028  0.33611784  0.75716637  1  0.273604
 C  C183  1  0.95706489  0.16554801  0.25719137  1  0.270822
 C  C184  1  0.17390863  0.03877708  0.74201810  1  0.267609
 C  C185  1  0.33550906  0.46317000  0.24473405  1  0.299065
 C  C186  1  0.95783867  0.66515366  0.99270011  1  0.271797
 C  C187  1  0.54176319  0.83616376  0.49295463  1  0.271770
 C  C188  1  0.83369626  0.45684580  0.50734474  1  0.270467
 C  C189  1  0.66375890  0.04182274  0.00703193  1  0.272079
 C  C190  1  0.04310961  0.83366157  0.25733327  1  0.271904
 C  C191  1  0.45845334  0.66392869  0.75696570  1  0.270632
 C  C192  1  0.65754944  0.64490023  0.23391415  1  -0.221460
 C  C193  1  0.84172102  0.85481285  0.73386791  1  -0.223102
 C  C194  1  0.35425759  0.15997239  0.48374760  1  -0.223000
 C  C195  1  0.14527410  0.34224213  0.98381664  1  -0.222413
 C  C196  1  0.34088735  0.85443492  0.01613946  1  -0.223139
 C  C197  1  0.15719831  0.64475083  0.51596113  1  -0.225294
 C  C198  1  0.64543690  0.34529034  0.76587816  1  -0.226607
 C  C199  1  0.85374230  0.16031311  0.26624897  1  -0.224625
 C  C200  1  0.16984649  0.14236876  0.73323075  1  -0.217678
 C  C201  1  0.34547892  0.35905835  0.23524372  1  -0.233186
 C  C202  1  0.85439350  0.65969819  0.98377031  1  -0.222966
 C  C203  1  0.64521162  0.84159301  0.48399951  1  -0.223129
 C  C204  1  0.83995458  0.35355612  0.51634285  1  -0.224796
 C  C205  1  0.65776141  0.14521314  0.01594910  1  -0.224831
 C  C206  1  0.14647754  0.83991590  0.26629425  1  -0.225179
 C  C207  1  0.35501890  0.65969003  0.76596129  1  -0.225278
 C  C208  1  0.63631613  0.66387514  0.20744018  1  -0.053550
 C  C209  1  0.86264345  0.83565434  0.70737441  1  -0.056538
 C  C210  1  0.33515521  0.13882365  0.45727149  1  -0.055535
 C  C211  1  0.16443159  0.36300586  0.95731033  1  -0.055178
 C  C212  1  0.36180012  0.83534722  0.04263663  1  -0.056726
 C  C213  1  0.13650230  0.66389769  0.54246753  1  -0.055454
 C  C214  1  0.66466760  0.36581690  0.79237809  1  -0.054518
 C  C215  1  0.83490610  0.13871058  0.29272391  1  -0.055007
 C  C216  1  0.14578115  0.16244283  0.70695507  1  -0.056344
 C  C217  1  0.36480652  0.33779752  0.20870911  1  -0.049103
 C  C218  1  0.83520489  0.63871910  0.95728893  1  -0.055395
 C  C219  1  0.66441412  0.86254952  0.45750746  1  -0.056279
 C  C220  1  0.86142616  0.33470120  0.54282372  1  -0.055993
 C  C221  1  0.63708135  0.16438661  0.04245243  1  -0.055860
 C  C222  1  0.16526169  0.86126256  0.29277530  1  -0.054402
 C  C223  1  0.33574767  0.63874055  0.79244914  1  -0.055016
 C  C224  1  0.66713561  0.59671188  0.28757619  1  0.261112
 C  C225  1  0.83234942  0.90361578  0.78749980  1  0.261199
 C  C226  1  0.40322899  0.16866188  0.53740890  1  0.260347
 C  C227  1  0.09634176  0.33280568  0.03747087  1  0.262596
 C  C228  1  0.33221721  0.90317522  0.96245421  1  0.263284
 C  C229  1  0.16684307  0.59599144  0.46234455  1  0.262388
 C  C230  1  0.59578985  0.33295250  0.71238797  1  0.262983
 C  C231  1  0.90236447  0.16923575  0.21250881  1  0.261234
 C  C232  1  0.17817837  0.09018522  0.78677649  1  0.289750
 C  C233  1  0.33477378  0.40760183  0.28912393  1  0.258028
 C  C234  1  0.90343854  0.66806144  0.03741065  1  0.260598
 C  C235  1  0.59625248  0.83253706  0.53762740  1  0.262699
 C  C236  1  0.83054210  0.40260593  0.46260358  1  0.261469
 C  C237  1  0.66707452  0.09642160  0.96235071  1  0.264392
 C  C238  1  0.09833790  0.83032831  0.21271579  1  0.261514
 C  C239  1  0.40393065  0.66757039  0.71229422  1  0.261519
 C  C240  1  0.75323183  0.62688541  0.30259235  1  -0.196920
 C  C241  1  0.74603789  0.87266192  0.80235746  1  -0.194421
 C  C242  1  0.37224250  0.25440867  0.55245951  1  -0.196534
 C  C243  1  0.12783278  0.24654086  0.05227156  1  -0.196130
 C  C244  1  0.24607416  0.87243440  0.94753226  1  -0.197464
 C  C245  1  0.25338716  0.62744950  0.44763979  1  -0.197557
 C  C246  1  0.62793857  0.24642128  0.69777923  1  -0.196336
 C  C247  1  0.87139476  0.25485393  0.19740178  1  -0.196968
 C  C248  1  0.25466411  0.12888170  0.80351449  1  -0.192390
 C  C249  1  0.24714445  0.37342988  0.30294737  1  -0.192937
 C  C250  1  0.87225476  0.75390749  0.05239667  1  -0.194848
 C  C251  1  0.62767373  0.74638810  0.55247630  1  -0.195502
 C  C252  1  0.74496876  0.37194080  0.44746102  1  -0.198229
 C  C253  1  0.75349678  0.12812762  0.94763867  1  -0.197882
 C  C254  1  0.13338692  0.74344578  0.19871643  1  -0.197500
 C  C255  1  0.37334854  0.75340137  0.69721114  1  -0.195128
 C  C256  1  0.74228017  0.70839482  0.32060686  1  -0.061942
 C  C257  1  0.75716266  0.79113219  0.82037567  1  -0.059958
 C  C258  1  0.29095915  0.24272388  0.57053113  1  -0.059979
 C  C259  1  0.20923067  0.25780491  0.07030684  1  -0.061115
 C  C260  1  0.25728482  0.79110044  0.92948057  1  -0.060976
 C  C261  1  0.24242325  0.70903337  0.42963364  1  -0.061759
 C  C262  1  0.70941240  0.25756080  0.67973610  1  -0.061176
 C  C263  1  0.79016630  0.24297010  0.17934855  1  -0.062578
 C  C264  1  0.23522821  0.20272033  0.81906013  1  0.057878
 C  C265  1  0.25784844  0.29067601  0.32061280  1  -0.062573
 C  C266  1  0.79089988  0.74224347  0.07044795  1  -0.061600
 C  C267  1  0.70911998  0.75774431  0.57049209  1  -0.062665
 C  C268  1  0.75695965  0.29093763  0.42934896  1  -0.062048
 C  C269  1  0.74223267  0.20962825  0.92962193  1  -0.062988
 C  C270  1  0.21496749  0.75526918  0.18074416  1  -0.061844
 C  C271  1  0.29183732  0.74209077  0.67920946  1  -0.065330
 C  C272  1  0.64644031  0.76016231  0.32336080  1  -0.068270
 C  C273  1  0.85334716  0.74016279  0.82329573  1  -0.069173
 C  C274  1  0.24011906  0.14652676  0.57331395  1  -0.069239
 C  C275  1  0.25968806  0.35410487  0.07328306  1  -0.067651
 C  C276  1  0.35340735  0.73997750  0.92659868  1  -0.068557
 C  C277  1  0.14611539  0.75966063  0.42660674  1  -0.068843
 C  C278  1  0.75943942  0.35401370  0.67658188  1  -0.069531
 C  C279  1  0.73943957  0.14670560  0.17662793  1  -0.069112
 C  C280  1  0.14664090  0.26120540  0.82362652  1  -0.058760
 C  C281  1  0.35478177  0.24174067  0.32402105  1  -0.063632
 C  C282  1  0.74020078  0.64598789  0.07327248  1  -0.067695
 C  C283  1  0.75971147  0.85399817  0.57339394  1  -0.067402
 C  C284  1  0.85327444  0.24005244  0.42661399  1  -0.068031
 C  C285  1  0.64578695  0.25998061  0.92659829  1  -0.064933
 C  C286  1  0.26163175  0.85298936  0.17696851  1  -0.065469
 C  C287  1  0.24040972  0.64617840  0.67651636  1  -0.067902
 C  C288  1  0.55993650  0.72634651  0.30864689  1  -0.062596
 C  C289  1  0.94009720  0.77493717  0.80878900  1  -0.061944
 C  C290  1  0.27499728  0.06028882  0.55863408  1  -0.062184
 C  C291  1  0.22438017  0.44079154  0.05883757  1  -0.063748
 C  C292  1  0.44001680  0.77453812  0.94116213  1  -0.061738
 C  C293  1  0.05914723  0.72436428  0.44094672  1  -0.060945
 C  C294  1  0.72333801  0.44098735  0.69078737  1  -0.063327
 C  C295  1  0.77430384  0.06058464  0.19136000  1  -0.061836
 C  C296  1  0.06448836  0.22096815  0.80766568  1  -0.056353
 C  C297  1  0.44263930  0.27978670  0.31052147  1  -0.062801
 C  C298  1  0.77525863  0.55966786  0.05865412  1  -0.062337
 C  C299  1  0.72447352  0.94058161  0.55889935  1  -0.062589
 C  C300  1  0.93938212  0.27473071  0.44134913  1  -0.061674
 C  C301  1  0.55895086  0.22444527  0.94095290  1  -0.061686
 C  C302  1  0.22331658  0.94006552  0.19075097  1  -0.062087
 C  C303  1  0.27487111  0.55985585  0.69123341  1  -0.062075
 C  C304  1  0.56959465  0.64414460  0.29089194  1  -0.199793
 C  C305  1  0.93023146  0.85716323  0.79103191  1  -0.203942
 C  C306  1  0.35707755  0.07066885  0.54083142  1  -0.201720
 C  C307  1  0.14216063  0.43081475  0.04108620  1  -0.201119
 C  C308  1  0.43009723  0.85665458  0.95894431  1  -0.201482
 C  C309  1  0.06883542  0.64198762  0.45866757  1  -0.202137
 C  C310  1  0.64093430  0.43115142  0.70851551  1  -0.199609
 C  C311  1  0.85627527  0.07117658  0.20916072  1  -0.201021
 C  C312  1  0.07907757  0.13830365  0.79016322  1  -0.206425
 C  C313  1  0.43330872  0.36358752  0.29320572  1  -0.197268
 C  C314  1  0.85740261  0.57003649  0.04086712  1  -0.201441
 C  C315  1  0.64219925  0.93052732  0.54116858  1  -0.201668
 C  C316  1  0.92870732  0.35651934  0.45920122  1  -0.201782
 C  C317  1  0.56892118  0.14210613  0.95867998  1  -0.202251
 C  C318  1  0.14110460  0.92935747  0.20850348  1  -0.199815
 C  C319  1  0.35709520  0.56986409  0.70897642  1  -0.201869
 C  C320  1  0.63609907  0.85192986  0.34121709  1  0.637766
 C  C321  1  0.86368757  0.64817655  0.84111042  1  0.637743
 C  C322  1  0.14817716  0.13583117  0.59115301  1  0.638792
 C  C323  1  0.35161921  0.36453321  0.09110290  1  0.638457
 C  C324  1  0.36369085  0.64809369  0.90876689  1  0.638130
 C  C325  1  0.13585635  0.85187899  0.40886687  1  0.637432
 C  C326  1  0.85186749  0.36431858  0.65889525  1  0.637198
 C  C327  1  0.64761862  0.13584850  0.15879289  1  0.637889
 C  C328  1  0.13526786  0.35313781  0.84108920  1  0.638834
 C  C329  1  0.36469317  0.14836344  0.34140054  1  0.638398
 C  C330  1  0.64821450  0.63549125  0.09110237  1  0.636775
 C  C331  1  0.85180385  0.86446126  0.59115967  1  0.637481
 C  C332  1  0.86414068  0.14810242  0.40881779  1  0.637718
 C  C333  1  0.63531357  0.35207402  0.90882354  1  0.638568
 C  C334  1  0.35291869  0.86428413  0.15898375  1  0.640321
 C  C335  1  0.14832011  0.63576529  0.65874638  1  0.638983
 H  H336  1  0.61478989  0.99699105  0.52963730  1  0.126288
 H  H337  1  0.76336254  0.01533269  0.56166136  1  0.119819
 H  H338  1  0.58976963  0.67134397  0.54935035  1  0.129885
 H  H339  1  0.73568644  0.69119754  0.58206225  1  0.110336
 H  H340  1  0.37850630  0.84051871  0.48265321  1  0.123173
 H  H341  1  0.41449244  0.87560720  0.43486422  1  0.109500
 H  H342  1  0.74415297  0.87054530  0.45027668  1  0.119306
 H  H343  1  0.70974732  0.83135487  0.49773349  1  0.118636
 H  H344  1  0.28966624  0.17020058  0.49748206  1  0.118589
 H  H345  1  0.62096710  0.16147587  0.48237216  1  0.123625
 H  H346  1  0.58517920  0.12608935  0.43461182  1  0.109112
 H  H347  1  0.25546008  0.13062624  0.45004897  1  0.119264
 H  H348  1  0.26470297  0.30900446  0.58223986  1  0.109625
 H  H349  1  0.41041656  0.32940817  0.54945406  1  0.131257
 H  H350  1  0.23595541  0.98554914  0.56130224  1  0.119898
 H  H351  1  0.38417071  0.00445014  0.52916527  1  0.126115
 H  H352  1  0.15907695  0.37822379  0.51737447  1  0.123075
 H  H353  1  0.16707624  0.70929159  0.50221439  1  0.119135
 H  H354  1  0.12840205  0.74357820  0.54969050  1  0.119544
 H  H355  1  0.12437873  0.41409360  0.56517286  1  0.109454
 H  H356  1  0.98439954  0.76332744  0.43806548  1  0.119754
 H  H357  1  0.00207543  0.61453921  0.47008672  1  0.126673
 H  H358  1  0.30927581  0.73568532  0.41818282  1  0.110284
 H  H359  1  0.32841268  0.58943434  0.45086313  1  0.131567
 H  H360  1  0.21118454  0.82968057  0.25259271  1  0.123562
 H  H361  1  0.24489440  0.86982943  0.30001482  1  0.118526
 H  H362  1  0.08514293  0.12381514  0.31506919  1  0.108287
 H  H363  1  0.12045177  0.15995207  0.26728175  1  0.123075
 H  H364  1  0.66809330  0.70954048  0.24758213  1  0.118895
 H  H365  1  0.65793484  0.37836373  0.23276638  1  0.121916
 H  H366  1  0.48556927  0.76634132  0.31123687  1  0.120998
 H  H367  1  0.50320477  0.61821408  0.27913872  1  0.125934
 H  H368  1  0.76446211  0.80856876  0.08211279  1  0.109975
 H  H369  1  0.91029752  0.82895180  0.04935684  1  0.130690
 H  H370  1  0.73634761  0.48487399  0.06135322  1  0.119440
 H  H371  1  0.88467790  0.50378536  0.02924018  1  0.126335
 H  H372  1  0.26315678  0.51556223  0.06166265  1  0.120608
 H  H373  1  0.11466413  0.49737941  0.02960612  1  0.126318
 H  H374  1  0.23586710  0.19114412  0.08182626  1  0.109897
 H  H375  1  0.08997034  0.17149932  0.04911065  1  0.131027
 H  H376  1  0.62843801  0.74349196  0.20015787  1  0.120361
 H  H377  1  0.62288293  0.41388516  0.18495421  1  0.108559
 H  H378  1  0.25970487  0.01573812  0.18741894  1  0.116737
 H  H379  1  0.11124271  0.99616601  0.21950566  1  0.123570
 H  H380  1  0.24533877  0.68805856  0.17004874  1  0.108482
 H  H381  1  0.09842708  0.66747742  0.20254149  1  0.129754
 H  H382  1  0.66732071  0.20972260  0.00217961  1  0.119257
 H  H383  1  0.62866046  0.24406011  0.04965472  1  0.119365
 H  H384  1  0.33055446  0.78988177  0.00243032  1  0.118460
 H  H385  1  0.36969344  0.75568345  0.04989638  1  0.119626
 H  H386  1  0.83006338  0.28887970  0.50264898  1  0.119562
 H  H387  1  0.83666556  0.62007725  0.51758431  1  0.121831
 H  H388  1  0.87287397  0.58470999  0.56534013  1  0.109542
 H  H389  1  0.87015404  0.25511278  0.55007926  1  0.119803
 H  H390  1  0.23534694  0.48534549  0.68863494  1  0.119336
 H  H391  1  0.41195933  0.82820256  0.70015522  1  0.131133
 H  H392  1  0.26588912  0.80846639  0.66748609  1  0.110094
 H  H393  1  0.38382495  0.50361518  0.72068777  1  0.126432
 H  H394  1  0.50224358  0.11442840  0.97009436  1  0.126373
 H  H395  1  0.48405423  0.26311534  0.93806518  1  0.120102
 H  H396  1  0.82863696  0.09032906  0.95085111  1  0.130701
 H  H397  1  0.80896990  0.23638930  0.91814745  1  0.109445
 H  H398  1  0.20984920  0.33244530  0.99755977  1  0.117595
 H  H399  1  0.24416276  0.37121955  0.95009242  1  0.119876
 H  H400  1  0.87859643  0.33991643  0.98243218  1  0.123198
 H  H401  1  0.91447505  0.37483821  0.93465449  1  0.108869
 H  H402  1  0.69046419  0.76482451  0.83193455  1  0.110763
 H  H403  1  0.67109803  0.91101796  0.79926970  1  0.133809
 H  H404  1  0.25596871  0.63172517  0.79971282  1  0.119182
 H  H405  1  0.29052157  0.67085724  0.75226072  1  0.119174
 H  H406  1  0.98848553  0.25899427  0.80939460  1  0.130591
 H  H407  1  0.01405085  0.11110335  0.77805336  1  0.131476
 H  H408  1  0.70989293  0.33831166  0.75197877  1  0.117791
 H  H409  1  0.01477380  0.73571361  0.81156025  1  0.119659
 H  H410  1  0.58564943  0.62277722  0.81498167  1  0.110736
 H  H411  1  0.62170224  0.65747159  0.76717943  1  0.122121
 H  H412  1  0.83157172  0.79028908  0.74760775  1  0.118698
 H  H413  1  0.87070170  0.75596353  0.70015576  1  0.119957
 H  H414  1  0.16485863  0.87583989  0.73173057  1  0.124267
 H  H415  1  0.12454631  0.91326212  0.68426604  1  0.110611
 H  H416  1  0.18361659  0.20633365  0.74692138  1  0.121523
 H  H417  1  0.13878476  0.24240004  0.69984818  1  0.119682
 H  H418  1  0.83972624  0.12135969  0.73245825  1  0.123891
 H  H419  1  0.87509792  0.08545372  0.68468310  1  0.109324
 H  H420  1  0.17115096  0.91085794  0.95060903  1  0.131267
 H  H421  1  0.49660863  0.88358653  0.97051137  1  0.126098
 H  H422  1  0.51468747  0.73526693  0.93840567  1  0.119879
 H  H423  1  0.19073551  0.76507947  0.91785084  1  0.110112
 H  H424  1  0.12108681  0.66126693  0.98233590  1  0.123525
 H  H425  1  0.08516169  0.62609495  0.93457286  1  0.109216
 H  H426  1  0.78983642  0.66985474  0.99751778  1  0.118388
 H  H427  1  0.75548465  0.63058302  0.95008132  1  0.119533
 H  H428  1  0.82794975  0.58795798  0.29959907  1  0.130281
 H  H429  1  0.80882846  0.73401340  0.33229667  1  0.109871
 H  H430  1  0.51775545  0.24188335  0.31368086  1  0.121306
 H  H431  1  0.50065710  0.39345207  0.28241445  1  0.127452
 H  H432  1  0.01423913  0.23571564  0.43868848  1  0.119075
 H  H433  1  0.99482060  0.38343461  0.47091791  1  0.126411
 H  H434  1  0.69081221  0.26489936  0.41757625  1  0.110009
 H  H435  1  0.66985051  0.41010360  0.45043839  1  0.131944
 H  H436  1  0.37510210  0.08523139  0.06518755  1  0.108885
 H  H437  1  0.34019837  0.12098047  0.01739473  1  0.123407
 H  H438  1  0.76387284  0.30914167  0.16760265  1  0.110582
 H  H439  1  0.90948690  0.32991611  0.20035200  1  0.131453
 H  H440  1  0.88337832  0.00508482  0.22087706  1  0.127221
 H  H441  1  0.73536018  0.98578418  0.18873165  1  0.120293
 H  H442  1  0.17177530  0.41022979  0.29936814  1  0.132971
 H  H443  1  0.19042333  0.26182260  0.33148602  1  0.111106
 H  H444  1  0.37693629  0.25761545  0.20207213  1  0.130499
 H  H445  1  0.34091550  0.29452275  0.24920891  1  0.125099
 H  H446  1  0.75525451  0.13077638  0.30002226  1  0.118921
 H  H447  1  0.78902850  0.17114064  0.25259545  1  0.119660
 H  H448  1  0.66087746  0.87868707  0.01742822  1  0.123088
 H  H449  1  0.62600722  0.91461666  0.06521938  1  0.108756
 H  H450  1  0.87975071  0.83637771  0.26762792  1  0.121915
 H  H451  1  0.91505902  0.87256658  0.31537829  1  0.109054
 H  H452  1  0.76175472  0.51587689  0.68782064  1  0.119561
 H  H453  1  0.59052743  0.17125751  0.70112080  1  0.130458
 H  H454  1  0.73649473  0.19068644  0.66836863  1  0.109422
 H  H455  1  0.61295828  0.49796985  0.71982179  1  0.125721
 H  H456  1  0.99676716  0.88403129  0.77944276  1  0.125139
 H  H457  1  0.74426396  0.37674691  0.79943181  1  0.117914
 H  H458  1  0.37921653  0.33205145  0.76795297  1  0.121322
 H  H459  1  0.41532390  0.36555660  0.81578750  1  0.109320
 H  H460  1  0.12238721  0.63467414  0.87389046  1  0.431419
 H  H461  1  0.62246906  0.63435309  0.87562898  1  0.431521
 H  H462  1  0.87653208  0.36590791  0.87444945  1  0.432019
 H  H463  1  0.37692636  0.36673563  0.87463295  1  0.432664
 H  H464  1  0.13446718  0.87674534  0.62407450  1  0.431963
 H  H465  1  0.13446573  0.37692690  0.62576105  1  0.431122
 H  H466  1  0.86592976  0.12323194  0.62446624  1  0.431556
 H  H467  1  0.86567576  0.62316389  0.62568637  1  0.431429
 H  H468  1  0.37705538  0.86549183  0.37420011  1  0.431964
 H  H469  1  0.87734454  0.86577841  0.37565798  1  0.431528
 H  H470  1  0.12301784  0.13425772  0.37568690  1  0.431872
 H  H471  1  0.62312978  0.13403109  0.37447920  1  0.430956
 H  H472  1  0.36630399  0.62361968  0.12489563  1  0.430862
 H  H473  1  0.36541451  0.12258868  0.12554302  1  0.430882
 H  H474  1  0.63345644  0.37677179  0.12439607  1  0.432228
 H  H475  1  0.63477160  0.87717807  0.12554888  1  0.429861
