# generated using pymatgen
data_cau-21-odb
_symmetry_space_group_name_H-M   'P 1'
_cell_length_a   16.53956721
_cell_length_b   16.53956721
_cell_length_c   23.55940528
_cell_angle_alpha   90.00000000
_cell_angle_beta   90.00000000
_cell_angle_gamma   90.00000000
_symmetry_Int_Tables_number   1
_chemical_formula_structural   Al16 H144 C224 O96
_chemical_formula_sum   'O96 C224 H144 Al16'
_cell_volume   6444.84690957
_cell_formula_units_Z   6
loop_
 _symmetry_equiv_pos_site_id
 _symmetry_equiv_pos_as_xyz
  1  'x, y, z'
loop_
 _atom_site_type_symbol
 _atom_site_label
 _atom_site_symmetry_multiplicity
 _atom_site_fract_x
 _atom_site_fract_y
 _atom_site_fract_z
 _atom_site_occupancy
 _atom_site_charge
 O  O0  1  0.33831236  0.70758660  0.07742174  1  -0.598969
 O  O1  1  0.66168761  0.29241340  0.07742174  1  -0.598969
 O  O2  1  0.29241340  0.33831236  0.07742174  1  -0.598969
 O  O3  1  0.70758660  0.66168761  0.07742174  1  -0.598969
 O  O4  1  0.66168761  0.70758660  0.92257823  1  -0.598969
 O  O5  1  0.33831236  0.29241340  0.92257823  1  -0.598969
 O  O6  1  0.70758660  0.33831236  0.92257823  1  -0.598969
 O  O7  1  0.29241340  0.66168761  0.92257823  1  -0.598969
 O  O8  1  0.83831239  0.20758660  0.57742177  1  -0.598969
 O  O9  1  0.16168764  0.79241340  0.57742177  1  -0.598969
 O  O10  1  0.79241340  0.83831239  0.57742177  1  -0.598969
 O  O11  1  0.20758660  0.16168764  0.57742177  1  -0.598969
 O  O12  1  0.16168764  0.20758660  0.42257826  1  -0.598969
 O  O13  1  0.83831239  0.79241340  0.42257826  1  -0.598969
 O  O14  1  0.20758660  0.83831239  0.42257826  1  -0.598969
 O  O15  1  0.79241340  0.16168764  0.42257826  1  -0.598969
 O  O16  1  0.46215077  0.76654847  0.07810816  1  -0.604452
 O  O17  1  0.53784923  0.23345153  0.07810816  1  -0.604452
 O  O18  1  0.23345153  0.46215077  0.07810816  1  -0.604452
 O  O19  1  0.76654847  0.53784923  0.07810816  1  -0.604452
 O  O20  1  0.53784923  0.76654847  0.92189183  1  -0.604452
 O  O21  1  0.46215077  0.23345153  0.92189183  1  -0.604452
 O  O22  1  0.76654847  0.46215077  0.92189183  1  -0.604452
 O  O23  1  0.23345153  0.53784923  0.92189183  1  -0.604452
 O  O24  1  0.96215077  0.26654847  0.57810817  1  -0.604452
 O  O25  1  0.03784923  0.73345153  0.57810817  1  -0.604452
 O  O26  1  0.73345153  0.96215077  0.57810817  1  -0.604452
 O  O27  1  0.26654847  0.03784923  0.57810817  1  -0.604452
 O  O28  1  0.03784923  0.26654847  0.42189183  1  -0.604452
 O  O29  1  0.96215077  0.73345153  0.42189183  1  -0.604452
 O  O30  1  0.26654847  0.96215077  0.42189183  1  -0.604452
 O  O31  1  0.73345153  0.03784923  0.42189183  1  -0.604452
 O  O32  1  0.42910336  0.85326198  0.97811978  1  -0.595429
 O  O33  1  0.57089664  0.14673802  0.97811978  1  -0.595429
 O  O34  1  0.14673802  0.42910336  0.97811978  1  -0.595429
 O  O35  1  0.85326198  0.57089664  0.97811978  1  -0.595429
 O  O36  1  0.57089664  0.85326198  0.02188022  1  -0.595429
 O  O37  1  0.42910336  0.14673802  0.02188022  1  -0.595429
 O  O38  1  0.85326198  0.42910336  0.02188022  1  -0.595429
 O  O39  1  0.14673802  0.57089664  0.02188022  1  -0.595429
 O  O40  1  0.92910336  0.35326198  0.47811978  1  -0.595429
 O  O41  1  0.07089664  0.64673802  0.47811978  1  -0.595429
 O  O42  1  0.64673802  0.92910336  0.47811978  1  -0.595429
 O  O43  1  0.35326198  0.07089664  0.47811978  1  -0.595429
 O  O44  1  0.07089664  0.35326198  0.52188022  1  -0.595428
 O  O45  1  0.92910336  0.64673802  0.52188022  1  -0.595428
 O  O46  1  0.35326198  0.92910336  0.52188022  1  -0.595428
 O  O47  1  0.64673802  0.07089664  0.52188022  1  -0.595428
 O  O48  1  0.30396627  0.79762291  0.98207730  1  -0.592833
 O  O49  1  0.69603373  0.20237709  0.98207730  1  -0.592833
 O  O50  1  0.20237709  0.30396627  0.98207730  1  -0.592833
 O  O51  1  0.79762291  0.69603373  0.98207730  1  -0.592833
 O  O52  1  0.69603373  0.79762291  0.01792270  1  -0.592833
 O  O53  1  0.30396627  0.20237709  0.01792270  1  -0.592833
 O  O54  1  0.79762291  0.30396627  0.01792270  1  -0.592833
 O  O55  1  0.20237709  0.69603373  0.01792270  1  -0.592833
 O  O56  1  0.80396627  0.29762291  0.48207730  1  -0.592833
 O  O57  1  0.19603373  0.70237709  0.48207730  1  -0.592833
 O  O58  1  0.70237709  0.80396627  0.48207730  1  -0.592833
 O  O59  1  0.29762291  0.19603373  0.48207730  1  -0.592833
 O  O60  1  0.19603373  0.29762291  0.51792270  1  -0.592833
 O  O61  1  0.80396627  0.70237709  0.51792270  1  -0.592833
 O  O62  1  0.29762291  0.80396627  0.51792270  1  -0.592833
 O  O63  1  0.70237709  0.19603373  0.51792270  1  -0.592833
 O  O64  1  0.42393071  0.68789835  0.98197914  1  -0.995909
 O  O65  1  0.57606929  0.31210165  0.98197914  1  -0.995909
 O  O66  1  0.31210165  0.42393071  0.98197914  1  -0.995909
 O  O67  1  0.68789835  0.57606929  0.98197914  1  -0.995909
 O  O68  1  0.57606929  0.68789835  0.01802086  1  -0.995909
 O  O69  1  0.42393071  0.31210165  0.01802086  1  -0.995909
 O  O70  1  0.68789835  0.42393071  0.01802086  1  -0.995909
 O  O71  1  0.31210165  0.57606929  0.01802086  1  -0.995909
 O  O72  1  0.92393071  0.18789835  0.48197914  1  -0.995909
 O  O73  1  0.07606929  0.81210165  0.48197914  1  -0.995909
 O  O74  1  0.81210165  0.92393071  0.48197914  1  -0.995909
 O  O75  1  0.18789835  0.07606929  0.48197914  1  -0.995909
 O  O76  1  0.07606929  0.18789835  0.51802086  1  -0.995909
 O  O77  1  0.92393071  0.81210165  0.51802086  1  -0.995909
 O  O78  1  0.18789835  0.92393071  0.51802086  1  -0.995909
 O  O79  1  0.81210165  0.07606929  0.51802086  1  -0.995909
 O  O80  1  0.72051746  0.61155726  0.34212022  1  -0.220846
 O  O81  1  0.27948254  0.38844274  0.34212022  1  -0.220826
 O  O82  1  0.38844274  0.72051746  0.34212022  1  -0.220826
 O  O83  1  0.61155726  0.27948254  0.34212022  1  -0.220846
 O  O84  1  0.27948254  0.61155726  0.65787975  1  -0.220846
 O  O85  1  0.72051746  0.38844274  0.65787975  1  -0.220826
 O  O86  1  0.61155726  0.72051746  0.65787975  1  -0.220846
 O  O87  1  0.38844274  0.27948254  0.65787975  1  -0.220826
 O  O88  1  0.22051746  0.11155726  0.84212025  1  -0.220826
 O  O89  1  0.77948254  0.88844274  0.84212025  1  -0.220846
 O  O90  1  0.88844274  0.22051746  0.84212025  1  -0.220846
 O  O91  1  0.11155726  0.77948254  0.84212025  1  -0.220826
 O  O92  1  0.77948254  0.11155726  0.15787978  1  -0.220826
 O  O93  1  0.22051746  0.88844274  0.15787978  1  -0.220846
 O  O94  1  0.11155726  0.22051746  0.15787978  1  -0.220826
 O  O95  1  0.88844274  0.77948254  0.15787978  1  -0.220846
 C  C96  1  0.39525620  0.72588947  0.28410555  1  0.281867
 C  C97  1  0.60474380  0.27411053  0.28410555  1  0.281958
 C  C98  1  0.27411053  0.39525620  0.28410555  1  0.281866
 C  C99  1  0.72588947  0.60474380  0.28410555  1  0.281958
 C  C100  1  0.60474380  0.72588947  0.71589448  1  0.281958
 C  C101  1  0.39525620  0.27411053  0.71589448  1  0.281867
 C  C102  1  0.72588947  0.39525620  0.71589448  1  0.281867
 C  C103  1  0.27411053  0.60474380  0.71589448  1  0.281958
 C  C104  1  0.89525620  0.22588947  0.78410552  1  0.281958
 C  C105  1  0.10474380  0.77411053  0.78410552  1  0.281867
 C  C106  1  0.77411053  0.89525620  0.78410552  1  0.281958
 C  C107  1  0.22588947  0.10474380  0.78410552  1  0.281866
 C  C108  1  0.10474380  0.22588947  0.21589445  1  0.281866
 C  C109  1  0.89525620  0.77411053  0.21589445  1  0.281958
 C  C110  1  0.22588947  0.89525620  0.21589445  1  0.281958
 C  C111  1  0.77411053  0.10474380  0.21589445  1  0.281866
 C  C112  1  0.33533549  0.68632510  0.25250931  1  -0.202950
 C  C113  1  0.66466448  0.31367490  0.25250931  1  -0.202952
 C  C114  1  0.31367490  0.33533549  0.25250931  1  -0.202949
 C  C115  1  0.68632510  0.66466448  0.25250931  1  -0.202951
 C  C116  1  0.66466448  0.68632510  0.74749069  1  -0.202952
 C  C117  1  0.33533549  0.31367490  0.74749069  1  -0.202950
 C  C118  1  0.68632510  0.33533549  0.74749069  1  -0.202949
 C  C119  1  0.31367490  0.66466448  0.74749069  1  -0.202951
 C  C120  1  0.83533552  0.18632510  0.75250931  1  -0.202951
 C  C121  1  0.16466451  0.81367490  0.75250931  1  -0.202949
 C  C122  1  0.81367490  0.83533552  0.75250931  1  -0.202950
 C  C123  1  0.18632510  0.16466451  0.75250931  1  -0.202948
 C  C124  1  0.16466451  0.18632510  0.24749069  1  -0.202949
 C  C125  1  0.83533552  0.81367490  0.24749069  1  -0.202951
 C  C126  1  0.18632510  0.83533552  0.24749069  1  -0.202950
 C  C127  1  0.81367490  0.16466451  0.24749069  1  -0.202948
 C  C128  1  0.33727337  0.69040797  0.19378644  1  -0.061181
 C  C129  1  0.66272663  0.30959203  0.19378644  1  -0.061221
 C  C130  1  0.30959203  0.33727337  0.19378644  1  -0.061179
 C  C131  1  0.69040797  0.66272663  0.19378644  1  -0.061220
 C  C132  1  0.66272663  0.69040797  0.80621355  1  -0.061221
 C  C133  1  0.33727337  0.30959203  0.80621355  1  -0.061181
 C  C134  1  0.69040797  0.33727337  0.80621355  1  -0.061179
 C  C135  1  0.30959203  0.66272663  0.80621355  1  -0.061220
 C  C136  1  0.83727337  0.19040797  0.69378645  1  -0.061221
 C  C137  1  0.16272663  0.80959203  0.69378645  1  -0.061181
 C  C138  1  0.80959203  0.83727337  0.69378645  1  -0.061220
 C  C139  1  0.19040797  0.16272663  0.69378645  1  -0.061179
 C  C140  1  0.16272663  0.19040797  0.30621355  1  -0.061181
 C  C141  1  0.83727337  0.80959203  0.30621355  1  -0.061221
 C  C142  1  0.19040797  0.83727337  0.30621355  1  -0.061220
 C  C143  1  0.80959203  0.16272663  0.30621355  1  -0.061180
 C  C144  1  0.39924952  0.73261916  0.16561722  1  -0.096885
 C  C145  1  0.60075048  0.26738084  0.16561722  1  -0.096873
 C  C146  1  0.26738084  0.39924952  0.16561722  1  -0.096885
 C  C147  1  0.73261916  0.60075048  0.16561722  1  -0.096873
 C  C148  1  0.60075048  0.73261916  0.83438278  1  -0.096873
 C  C149  1  0.39924952  0.26738084  0.83438278  1  -0.096885
 C  C150  1  0.73261916  0.39924952  0.83438278  1  -0.096885
 C  C151  1  0.26738084  0.60075048  0.83438278  1  -0.096873
 C  C152  1  0.89924952  0.23261916  0.66561722  1  -0.096873
 C  C153  1  0.10075048  0.76738084  0.66561722  1  -0.096885
 C  C154  1  0.76738084  0.89924952  0.66561722  1  -0.096873
 C  C155  1  0.23261916  0.10075048  0.66561722  1  -0.096885
 C  C156  1  0.10075048  0.23261916  0.33438278  1  -0.096885
 C  C157  1  0.89924952  0.76738084  0.33438278  1  -0.096873
 C  C158  1  0.23261916  0.89924952  0.33438278  1  -0.096873
 C  C159  1  0.76738084  0.10075048  0.33438278  1  -0.096885
 C  C160  1  0.45918363  0.77109633  0.19777124  1  -0.058220
 C  C161  1  0.54081637  0.22890367  0.19777124  1  -0.058217
 C  C162  1  0.22890367  0.45918363  0.19777124  1  -0.058221
 C  C163  1  0.77109633  0.54081637  0.19777124  1  -0.058217
 C  C164  1  0.54081637  0.77109633  0.80222874  1  -0.058217
 C  C165  1  0.45918363  0.22890367  0.80222874  1  -0.058221
 C  C166  1  0.77109633  0.45918363  0.80222874  1  -0.058220
 C  C167  1  0.22890367  0.54081637  0.80222874  1  -0.058217
 C  C168  1  0.95918363  0.27109633  0.69777126  1  -0.058217
 C  C169  1  0.04081637  0.72890367  0.69777126  1  -0.058221
 C  C170  1  0.72890367  0.95918363  0.69777126  1  -0.058217
 C  C171  1  0.27109633  0.04081637  0.69777126  1  -0.058221
 C  C172  1  0.04081637  0.27109633  0.30222874  1  -0.058221
 C  C173  1  0.95918363  0.72890367  0.30222874  1  -0.058217
 C  C174  1  0.27109633  0.95918363  0.30222874  1  -0.058217
 C  C175  1  0.72890367  0.04081637  0.30222874  1  -0.058221
 C  C176  1  0.45741155  0.76847644  0.25678171  1  -0.226063
 C  C177  1  0.54258842  0.23152356  0.25678171  1  -0.226092
 C  C178  1  0.23152356  0.45741155  0.25678171  1  -0.226064
 C  C179  1  0.76847644  0.54258842  0.25678171  1  -0.226092
 C  C180  1  0.54258842  0.76847644  0.74321829  1  -0.226093
 C  C181  1  0.45741155  0.23152356  0.74321829  1  -0.226064
 C  C182  1  0.76847644  0.45741155  0.74321829  1  -0.226064
 C  C183  1  0.23152356  0.54258842  0.74321829  1  -0.226093
 C  C184  1  0.95741158  0.26847644  0.75678171  1  -0.226092
 C  C185  1  0.04258845  0.73152356  0.75678171  1  -0.226063
 C  C186  1  0.73152356  0.95741158  0.75678171  1  -0.226092
 C  C187  1  0.26847644  0.04258845  0.75678171  1  -0.226063
 C  C188  1  0.04258845  0.26847644  0.24321829  1  -0.226063
 C  C189  1  0.95741158  0.73152356  0.24321829  1  -0.226092
 C  C190  1  0.26847644  0.95741158  0.24321829  1  -0.226092
 C  C191  1  0.73152356  0.04258845  0.24321829  1  -0.226063
 C  C192  1  0.40032543  0.73593888  0.10271662  1  0.628847
 C  C193  1  0.59967457  0.26406112  0.10271662  1  0.628846
 C  C194  1  0.26406112  0.40032543  0.10271662  1  0.628847
 C  C195  1  0.73593888  0.59967457  0.10271662  1  0.628846
 C  C196  1  0.59967457  0.73593888  0.89728337  1  0.628845
 C  C197  1  0.40032543  0.26406112  0.89728337  1  0.628847
 C  C198  1  0.73593888  0.40032543  0.89728337  1  0.628847
 C  C199  1  0.26406112  0.59967457  0.89728337  1  0.628845
 C  C200  1  0.90032543  0.23593888  0.60271663  1  0.628845
 C  C201  1  0.09967457  0.76406112  0.60271663  1  0.628847
 C  C202  1  0.76406112  0.90032543  0.60271663  1  0.628845
 C  C203  1  0.23593888  0.09967457  0.60271663  1  0.628847
 C  C204  1  0.09967457  0.23593888  0.39728337  1  0.628847
 C  C205  1  0.90032543  0.76406112  0.39728337  1  0.628846
 C  C206  1  0.23593888  0.90032543  0.39728337  1  0.628846
 C  C207  1  0.76406112  0.09967457  0.39728337  1  0.628847
 C  C208  1  0.86528249  0.49193873  0.42541953  1  -0.059294
 C  C209  1  0.13471751  0.50806130  0.42541953  1  -0.059294
 C  C210  1  0.50806130  0.86528249  0.42541953  1  -0.059294
 C  C211  1  0.49193873  0.13471751  0.42541953  1  -0.059294
 C  C212  1  0.13471751  0.49193873  0.57458050  1  -0.059327
 C  C213  1  0.86528249  0.50806130  0.57458050  1  -0.059327
 C  C214  1  0.49193873  0.86528249  0.57458050  1  -0.059327
 C  C215  1  0.50806130  0.13471751  0.57458050  1  -0.059327
 C  C216  1  0.36528249  0.99193870  0.92541950  1  -0.059327
 C  C217  1  0.63471751  0.00806127  0.92541950  1  -0.059327
 C  C218  1  0.00806127  0.36528249  0.92541950  1  -0.059327
 C  C219  1  0.99193870  0.63471751  0.92541950  1  -0.059327
 C  C220  1  0.63471751  0.99193870  0.07458047  1  -0.059294
 C  C221  1  0.36528249  0.00806127  0.07458047  1  -0.059294
 C  C222  1  0.99193870  0.36528249  0.07458047  1  -0.059294
 C  C223  1  0.00806127  0.63471751  0.07458047  1  -0.059293
 C  C224  1  0.83286801  0.55526474  0.39385545  1  -0.187905
 C  C225  1  0.16713199  0.44473526  0.39385545  1  -0.187904
 C  C226  1  0.44473526  0.83286801  0.39385545  1  -0.187904
 C  C227  1  0.55526474  0.16713199  0.39385545  1  -0.187905
 C  C228  1  0.16713199  0.55526474  0.60614458  1  -0.187875
 C  C229  1  0.83286801  0.44473526  0.60614458  1  -0.187875
 C  C230  1  0.55526474  0.83286801  0.60614458  1  -0.187875
 C  C231  1  0.44473526  0.16713199  0.60614458  1  -0.187875
 C  C232  1  0.33286801  0.05526474  0.89385542  1  -0.187875
 C  C233  1  0.66713199  0.94473526  0.89385542  1  -0.187875
 C  C234  1  0.94473526  0.33286801  0.89385542  1  -0.187875
 C  C235  1  0.05526474  0.66713199  0.89385542  1  -0.187875
 C  C236  1  0.66713199  0.05526474  0.10614455  1  -0.187904
 C  C237  1  0.33286801  0.94473526  0.10614455  1  -0.187905
 C  C238  1  0.05526474  0.33286801  0.10614455  1  -0.187904
 C  C239  1  0.94473526  0.66713199  0.10614455  1  -0.187905
 C  C240  1  0.75348697  0.54904521  0.37443457  1  0.259369
 C  C241  1  0.24651303  0.45095479  0.37443457  1  0.259367
 C  C242  1  0.45095479  0.75348697  0.37443457  1  0.259367
 C  C243  1  0.54904521  0.24651303  0.37443457  1  0.259369
 C  C244  1  0.24651303  0.54904521  0.62556540  1  0.259363
 C  C245  1  0.75348697  0.45095479  0.62556540  1  0.259361
 C  C246  1  0.54904521  0.75348697  0.62556540  1  0.259363
 C  C247  1  0.45095479  0.24651303  0.62556540  1  0.259361
 C  C248  1  0.25348697  0.04904521  0.87443460  1  0.259361
 C  C249  1  0.74651303  0.95095479  0.87443460  1  0.259363
 C  C250  1  0.95095479  0.25348697  0.87443460  1  0.259363
 C  C251  1  0.04904521  0.74651303  0.87443460  1  0.259361
 C  C252  1  0.74651303  0.04904521  0.12556543  1  0.259367
 C  C253  1  0.25348697  0.95095479  0.12556543  1  0.259369
 C  C254  1  0.04904521  0.25348697  0.12556543  1  0.259367
 C  C255  1  0.95095479  0.74651303  0.12556543  1  0.259369
 C  C256  1  0.70535726  0.48212075  0.38690114  1  -0.203466
 C  C257  1  0.29464274  0.51787925  0.38690114  1  -0.203466
 C  C258  1  0.51787925  0.70535726  0.38690114  1  -0.203466
 C  C259  1  0.48212075  0.29464274  0.38690114  1  -0.203466
 C  C260  1  0.29464274  0.48212075  0.61309886  1  -0.203464
 C  C261  1  0.70535726  0.51787925  0.61309886  1  -0.203464
 C  C262  1  0.48212075  0.70535726  0.61309886  1  -0.203464
 C  C263  1  0.51787925  0.29464274  0.61309886  1  -0.203464
 C  C264  1  0.20535726  0.98212075  0.88690114  1  -0.203464
 C  C265  1  0.79464274  0.01787925  0.88690114  1  -0.203465
 C  C266  1  0.01787925  0.20535726  0.88690114  1  -0.203465
 C  C267  1  0.98212075  0.79464274  0.88690114  1  -0.203464
 C  C268  1  0.79464274  0.98212075  0.11309886  1  -0.203466
 C  C269  1  0.20535726  0.01787925  0.11309886  1  -0.203466
 C  C270  1  0.98212075  0.20535726  0.11309886  1  -0.203466
 C  C271  1  0.01787925  0.79464274  0.11309886  1  -0.203466
 C  C272  1  0.23796475  0.91941857  0.91883880  1  -0.060219
 C  C273  1  0.76203525  0.08058143  0.91883880  1  -0.060219
 C  C274  1  0.08058143  0.23796475  0.91883880  1  -0.060219
 C  C275  1  0.91941857  0.76203525  0.91883880  1  -0.060219
 C  C276  1  0.76203525  0.91941857  0.08116120  1  -0.060223
 C  C277  1  0.23796475  0.08058143  0.08116120  1  -0.060222
 C  C278  1  0.91941857  0.23796475  0.08116120  1  -0.060222
 C  C279  1  0.08058143  0.76203525  0.08116120  1  -0.060223
 C  C280  1  0.73796475  0.41941857  0.41883880  1  -0.060222
 C  C281  1  0.26203525  0.58058143  0.41883880  1  -0.060222
 C  C282  1  0.58058143  0.73796475  0.41883880  1  -0.060223
 C  C283  1  0.41941857  0.26203525  0.41883880  1  -0.060222
 C  C284  1  0.26203525  0.41941857  0.58116120  1  -0.060219
 C  C285  1  0.73796475  0.58058143  0.58116120  1  -0.060219
 C  C286  1  0.41941857  0.73796475  0.58116120  1  -0.060219
 C  C287  1  0.58058143  0.26203525  0.58116120  1  -0.060219
 C  C288  1  0.31832459  0.92365204  0.93764307  1  -0.068510
 C  C289  1  0.68167544  0.07634796  0.93764307  1  -0.068510
 C  C290  1  0.07634796  0.31832459  0.93764307  1  -0.068510
 C  C291  1  0.92365204  0.68167544  0.93764307  1  -0.068511
 C  C292  1  0.68167544  0.92365204  0.06235693  1  -0.068505
 C  C293  1  0.31832459  0.07634796  0.06235693  1  -0.068505
 C  C294  1  0.92365204  0.31832459  0.06235693  1  -0.068505
 C  C295  1  0.07634796  0.68167544  0.06235693  1  -0.068505
 C  C296  1  0.81832456  0.42365204  0.43764307  1  -0.068505
 C  C297  1  0.18167541  0.57634796  0.43764307  1  -0.068505
 C  C298  1  0.57634796  0.81832456  0.43764307  1  -0.068505
 C  C299  1  0.42365204  0.18167541  0.43764307  1  -0.068505
 C  C300  1  0.18167541  0.42365204  0.56235693  1  -0.068511
 C  C301  1  0.81832456  0.57634796  0.56235693  1  -0.068511
 C  C302  1  0.42365204  0.81832456  0.56235693  1  -0.068511
 C  C303  1  0.57634796  0.18167541  0.56235693  1  -0.068511
 C  C304  1  0.35320642  0.85326194  0.96841298  1  0.638951
 C  C305  1  0.64679358  0.14673806  0.96841298  1  0.638951
 C  C306  1  0.14673806  0.35320642  0.96841298  1  0.638951
 C  C307  1  0.85326194  0.64679358  0.96841298  1  0.638951
 C  C308  1  0.64679358  0.85326194  0.03158702  1  0.638949
 C  C309  1  0.35320642  0.14673806  0.03158702  1  0.638949
 C  C310  1  0.85326194  0.35320642  0.03158702  1  0.638949
 C  C311  1  0.14673806  0.64679358  0.03158702  1  0.638949
 C  C312  1  0.85320642  0.35326194  0.46841298  1  0.638949
 C  C313  1  0.14679358  0.64673806  0.46841298  1  0.638949
 C  C314  1  0.64673806  0.85320642  0.46841298  1  0.638949
 C  C315  1  0.35326194  0.14679358  0.46841298  1  0.638949
 C  C316  1  0.14679358  0.35326194  0.53158702  1  0.638951
 C  C317  1  0.85320642  0.64673806  0.53158702  1  0.638951
 C  C318  1  0.35326194  0.85320642  0.53158702  1  0.638951
 C  C319  1  0.64673806  0.14679358  0.53158702  1  0.638951
 H  H320  1  0.92726047  0.49497731  0.44082334  1  0.115932
 H  H321  1  0.07273953  0.50502272  0.44082334  1  0.115929
 H  H322  1  0.50502272  0.92726047  0.44082334  1  0.115932
 H  H323  1  0.49497731  0.07273953  0.44082334  1  0.115929
 H  H324  1  0.07273953  0.49497731  0.55917666  1  0.115950
 H  H325  1  0.92726047  0.50502272  0.55917666  1  0.115948
 H  H326  1  0.49497731  0.92726047  0.55917666  1  0.115950
 H  H327  1  0.50502272  0.07273953  0.55917666  1  0.115948
 H  H328  1  0.42726047  0.99497728  0.94082334  1  0.115951
 H  H329  1  0.57273953  0.00502269  0.94082334  1  0.115948
 H  H330  1  0.00502269  0.42726047  0.94082334  1  0.115950
 H  H331  1  0.99497728  0.57273953  0.94082334  1  0.115948
 H  H332  1  0.57273953  0.99497728  0.05917666  1  0.115931
 H  H333  1  0.42726047  0.00502269  0.05917666  1  0.115929
 H  H334  1  0.99497728  0.42726047  0.05917666  1  0.115931
 H  H335  1  0.00502269  0.57273953  0.05917666  1  0.115929
 H  H336  1  0.28809708  0.65338134  0.27494694  1  0.122006
 H  H337  1  0.71190292  0.34661866  0.27494694  1  0.121980
 H  H338  1  0.34661866  0.28809708  0.27494694  1  0.122006
 H  H339  1  0.65338134  0.71190292  0.27494694  1  0.121980
 H  H340  1  0.71190292  0.65338134  0.72505306  1  0.121980
 H  H341  1  0.28809708  0.34661866  0.72505306  1  0.122006
 H  H342  1  0.65338134  0.28809708  0.72505306  1  0.122006
 H  H343  1  0.34661866  0.71190292  0.72505306  1  0.121980
 H  H344  1  0.78809708  0.15338134  0.77494694  1  0.121979
 H  H345  1  0.21190292  0.84661866  0.77494694  1  0.122005
 H  H346  1  0.84661866  0.78809708  0.77494694  1  0.121979
 H  H347  1  0.15338134  0.21190292  0.77494694  1  0.122005
 H  H348  1  0.21190292  0.15338134  0.22505306  1  0.122005
 H  H349  1  0.78809708  0.84661866  0.22505306  1  0.121979
 H  H350  1  0.15338134  0.78809708  0.22505306  1  0.121979
 H  H351  1  0.84661866  0.21190292  0.22505306  1  0.122005
 H  H352  1  0.29075847  0.66075991  0.16853597  1  0.112101
 H  H353  1  0.70924153  0.33924009  0.16853597  1  0.112108
 H  H354  1  0.33924009  0.29075847  0.16853597  1  0.112101
 H  H355  1  0.66075991  0.70924153  0.16853597  1  0.112108
 H  H356  1  0.70924153  0.66075991  0.83146400  1  0.112108
 H  H357  1  0.29075847  0.33924009  0.83146400  1  0.112101
 H  H358  1  0.66075991  0.29075847  0.83146400  1  0.112101
 H  H359  1  0.33924009  0.70924153  0.83146400  1  0.112108
 H  H360  1  0.79075847  0.16075991  0.66853600  1  0.112109
 H  H361  1  0.20924153  0.83924009  0.66853600  1  0.112101
 H  H362  1  0.83924009  0.79075847  0.66853600  1  0.112108
 H  H363  1  0.16075991  0.20924153  0.66853600  1  0.112101
 H  H364  1  0.20924153  0.16075991  0.33146403  1  0.112101
 H  H365  1  0.79075847  0.83924009  0.33146403  1  0.112108
 H  H366  1  0.16075991  0.79075847  0.33146403  1  0.112108
 H  H367  1  0.83924009  0.20924153  0.33146403  1  0.112101
 H  H368  1  0.50708442  0.80378241  0.17578131  1  0.110188
 H  H369  1  0.49291558  0.19621759  0.17578131  1  0.110187
 H  H370  1  0.19621759  0.50708442  0.17578131  1  0.110188
 H  H371  1  0.80378241  0.49291558  0.17578131  1  0.110187
 H  H372  1  0.49291558  0.80378241  0.82421867  1  0.110187
 H  H373  1  0.50708442  0.19621759  0.82421867  1  0.110188
 H  H374  1  0.80378241  0.50708442  0.82421867  1  0.110188
 H  H375  1  0.19621759  0.49291558  0.82421867  1  0.110187
 H  H376  1  0.00708442  0.30378241  0.67578133  1  0.110187
 H  H377  1  0.99291558  0.69621759  0.67578133  1  0.110188
 H  H378  1  0.69621759  0.00708442  0.67578133  1  0.110187
 H  H379  1  0.30378241  0.99291558  0.67578133  1  0.110188
 H  H380  1  0.99291558  0.30378241  0.32421867  1  0.110188
 H  H381  1  0.00708442  0.69621759  0.32421867  1  0.110187
 H  H382  1  0.30378241  0.00708442  0.32421867  1  0.110187
 H  H383  1  0.69621759  0.99291558  0.32421867  1  0.110188
 H  H384  1  0.50344395  0.79945130  0.28161467  1  0.115573
 H  H385  1  0.49655605  0.20054870  0.28161467  1  0.115576
 H  H386  1  0.20054870  0.50344395  0.28161467  1  0.115573
 H  H387  1  0.79945130  0.49655605  0.28161467  1  0.115576
 H  H388  1  0.49655605  0.79945130  0.71838536  1  0.115576
 H  H389  1  0.50344395  0.20054870  0.71838536  1  0.115573
 H  H390  1  0.79945130  0.50344395  0.71838536  1  0.115573
 H  H391  1  0.20054870  0.49655605  0.71838536  1  0.115576
 H  H392  1  0.00344395  0.29945130  0.78161464  1  0.115576
 H  H393  1  0.99655605  0.70054870  0.78161464  1  0.115573
 H  H394  1  0.70054870  0.00344395  0.78161464  1  0.115576
 H  H395  1  0.29945130  0.99655605  0.78161464  1  0.115573
 H  H396  1  0.99655605  0.29945130  0.21838533  1  0.115573
 H  H397  1  0.00344395  0.70054870  0.21838533  1  0.115576
 H  H398  1  0.29945130  0.00344395  0.21838533  1  0.115576
 H  H399  1  0.70054870  0.99655605  0.21838533  1  0.115573
 H  H400  1  0.86872461  0.60841837  0.38359198  1  0.128208
 H  H401  1  0.13127539  0.39158163  0.38359198  1  0.128208
 H  H402  1  0.39158163  0.86872461  0.38359198  1  0.128208
 H  H403  1  0.60841837  0.13127539  0.38359198  1  0.128208
 H  H404  1  0.13127539  0.60841837  0.61640799  1  0.128204
 H  H405  1  0.86872461  0.39158163  0.61640799  1  0.128204
 H  H406  1  0.60841837  0.86872461  0.61640799  1  0.128204
 H  H407  1  0.39158163  0.13127539  0.61640799  1  0.128204
 H  H408  1  0.36872461  0.10841837  0.88359201  1  0.128204
 H  H409  1  0.63127539  0.89158163  0.88359201  1  0.128204
 H  H410  1  0.89158163  0.36872461  0.88359201  1  0.128204
 H  H411  1  0.10841837  0.63127539  0.88359201  1  0.128204
 H  H412  1  0.63127539  0.10841837  0.11640802  1  0.128208
 H  H413  1  0.36872461  0.89158163  0.11640802  1  0.128208
 H  H414  1  0.10841837  0.36872461  0.11640802  1  0.128208
 H  H415  1  0.89158163  0.63127539  0.11640802  1  0.128208
 H  H416  1  0.64371077  0.47925323  0.37069132  1  0.123215
 H  H417  1  0.35628923  0.52074680  0.37069132  1  0.123215
 H  H418  1  0.52074680  0.64371077  0.37069132  1  0.123215
 H  H419  1  0.47925323  0.35628923  0.37069132  1  0.123215
 H  H420  1  0.35628923  0.47925323  0.62930871  1  0.123215
 H  H421  1  0.64371077  0.52074680  0.62930871  1  0.123215
 H  H422  1  0.47925323  0.64371077  0.62930871  1  0.123215
 H  H423  1  0.52074680  0.35628923  0.62930871  1  0.123215
 H  H424  1  0.14371077  0.97925320  0.87069129  1  0.123215
 H  H425  1  0.85628923  0.02074677  0.87069129  1  0.123215
 H  H426  1  0.02074677  0.14371077  0.87069129  1  0.123215
 H  H427  1  0.97925320  0.85628923  0.87069129  1  0.123215
 H  H428  1  0.85628923  0.97925320  0.12930868  1  0.123215
 H  H429  1  0.14371077  0.02074677  0.12930868  1  0.123215
 H  H430  1  0.97925320  0.14371077  0.12930868  1  0.123215
 H  H431  1  0.02074677  0.85628923  0.12930868  1  0.123215
 H  H432  1  0.20246589  0.86577533  0.92863523  1  0.124583
 H  H433  1  0.79753412  0.13422467  0.92863523  1  0.124583
 H  H434  1  0.13422467  0.20246589  0.92863523  1  0.124583
 H  H435  1  0.86577533  0.79753412  0.92863523  1  0.124583
 H  H436  1  0.79753412  0.86577533  0.07136477  1  0.124583
 H  H437  1  0.20246589  0.13422467  0.07136477  1  0.124583
 H  H438  1  0.86577533  0.20246589  0.07136477  1  0.124583
 H  H439  1  0.13422467  0.79753412  0.07136477  1  0.124583
 H  H440  1  0.70246588  0.36577533  0.42863523  1  0.124584
 H  H441  1  0.29753412  0.63422467  0.42863523  1  0.124584
 H  H442  1  0.63422467  0.70246588  0.42863523  1  0.124584
 H  H443  1  0.36577533  0.29753412  0.42863523  1  0.124584
 H  H444  1  0.29753412  0.36577533  0.57136477  1  0.124582
 H  H445  1  0.70246588  0.63422467  0.57136477  1  0.124582
 H  H446  1  0.36577533  0.70246588  0.57136477  1  0.124582
 H  H447  1  0.63422467  0.29753412  0.57136477  1  0.124582
 H  H448  1  0.43732537  0.65804383  0.94792850  1  0.424391
 H  H449  1  0.56267463  0.34195617  0.94792850  1  0.424391
 H  H450  1  0.34195617  0.43732537  0.94792850  1  0.424390
 H  H451  1  0.65804383  0.56267463  0.94792850  1  0.424390
 H  H452  1  0.56267463  0.65804383  0.05207150  1  0.424391
 H  H453  1  0.43732537  0.34195617  0.05207150  1  0.424391
 H  H454  1  0.65804383  0.43732537  0.05207150  1  0.424389
 H  H455  1  0.34195617  0.56267463  0.05207150  1  0.424390
 H  H456  1  0.93732537  0.15804383  0.44792850  1  0.424391
 H  H457  1  0.06267463  0.84195617  0.44792850  1  0.424391
 H  H458  1  0.84195617  0.93732537  0.44792850  1  0.424390
 H  H459  1  0.15804383  0.06267463  0.44792850  1  0.424390
 H  H460  1  0.06267463  0.15804383  0.55207150  1  0.424391
 H  H461  1  0.93732537  0.84195617  0.55207150  1  0.424391
 H  H462  1  0.15804383  0.93732537  0.55207150  1  0.424390
 H  H463  1  0.84195617  0.06267463  0.55207150  1  0.424390
 Al  Al464  1  0.31369654  0.68630346  0.00000000  1  1.651200
 Al  Al465  1  0.68630346  0.31369654  0.00000000  1  1.651200
 Al  Al466  1  0.31369654  0.31369654  0.00000000  1  1.651200
 Al  Al467  1  0.68630346  0.68630346  0.00000000  1  1.651200
 Al  Al468  1  0.81369654  0.18630346  0.50000000  1  1.651200
 Al  Al469  1  0.18630346  0.81369654  0.50000000  1  1.651200
 Al  Al470  1  0.81369654  0.81369654  0.50000000  1  1.651200
 Al  Al471  1  0.18630346  0.18630346  0.50000000  1  1.651200
 Al  Al472  1  0.50000000  0.76777071  0.00000000  1  1.644561
 Al  Al473  1  0.50000000  0.23222929  0.00000000  1  1.644561
 Al  Al474  1  0.23222929  0.50000000  0.00000000  1  1.644561
 Al  Al475  1  0.76777071  0.50000000  0.00000000  1  1.644561
 Al  Al476  1  0.00000000  0.26777071  0.50000000  1  1.644561
 Al  Al477  1  0.00000000  0.73222929  0.50000000  1  1.644561
 Al  Al478  1  0.73222929  0.00000000  0.50000000  1  1.644561
 Al  Al479  1  0.26777071  0.00000000  0.50000000  1  1.644561
