# generated using pymatgen
data_cau-8-pbdc
_symmetry_space_group_name_H-M   'P 1'
_cell_length_a   13.02704189
_cell_length_b   13.02704189
_cell_length_c   52.42781712
_cell_angle_alpha   90.00000000
_cell_angle_beta   90.00000000
_cell_angle_gamma   90.00000000
_symmetry_Int_Tables_number   1
_chemical_formula_structural   Al16 H144 C240 O96
_chemical_formula_sum   'Al16 O96 H144 C240'
_cell_volume   8897.20086035
_cell_formula_units_Z   6
loop_
 _symmetry_equiv_pos_site_id
 _symmetry_equiv_pos_as_xyz
  1  'x, y, z'
loop_
 _atom_site_type_symbol
 _atom_site_label
 _atom_site_symmetry_multiplicity
 _atom_site_fract_x
 _atom_site_fract_y
 _atom_site_fract_z
 _atom_site_occupancy
 _atom_site_charge
 Al  Al0  1  0.00000000  0.50000000  0.00000000  1  1.641223
 Al  Al1  1  0.50000000  0.50000000  0.50000000  1  1.641223
 Al  Al2  1  0.25000000  0.25000000  0.25000000  1  1.641223
 Al  Al3  1  0.75000000  0.75000000  0.75000000  1  1.641223
 Al  Al4  1  0.25000000  0.75000000  0.75000000  1  1.641223
 Al  Al5  1  0.75000000  0.25000000  0.25000000  1  1.641223
 Al  Al6  1  0.50000000  0.00000000  0.50000000  1  1.641223
 Al  Al7  1  0.00000000  0.00000000  0.00000000  1  1.641223
 Al  Al8  1  0.00000000  0.25000000  0.00624688  1  1.643857
 Al  Al9  1  0.00000000  0.75000000  0.99375312  1  1.643857
 Al  Al10  1  0.50000000  0.75000000  0.50624688  1  1.643857
 Al  Al11  1  0.50000000  0.25000000  0.49375312  1  1.643857
 Al  Al12  1  0.50000000  0.25000000  0.25624688  1  1.643857
 Al  Al13  1  0.50000000  0.75000000  0.74375312  1  1.643857
 Al  Al14  1  0.00000000  0.75000000  0.75624688  1  1.643857
 Al  Al15  1  0.00000000  0.25000000  0.24375312  1  1.643857
 O  O16  1  0.93549255  0.37598072  0.00586314  1  -0.989733
 O  O17  1  0.06450746  0.62401925  0.99413686  1  -0.989733
 O  O18  1  0.56450745  0.62401925  0.50586314  1  -0.989733
 O  O19  1  0.43549255  0.37598072  0.49413686  1  -0.989734
 O  O20  1  0.37401928  0.18549255  0.25586314  1  -0.989734
 O  O21  1  0.62598075  0.81450745  0.74413686  1  -0.989733
 O  O22  1  0.12598072  0.81450745  0.75586314  1  -0.989733
 O  O23  1  0.87401925  0.18549255  0.24413686  1  -0.989734
 O  O24  1  0.43549255  0.87598075  0.50586314  1  -0.989734
 O  O25  1  0.56450745  0.12401928  0.49413686  1  -0.989733
 O  O26  1  0.06450746  0.12401928  0.00586314  1  -0.989733
 O  O27  1  0.93549255  0.87598075  0.99413686  1  -0.989733
 O  O28  1  0.87401925  0.68549255  0.75586314  1  -0.989733
 O  O29  1  0.12598072  0.31450745  0.24413686  1  -0.989734
 O  O30  1  0.62598075  0.31450745  0.25586314  1  -0.989734
 O  O31  1  0.37401928  0.68549255  0.74413686  1  -0.989733
 O  O32  1  0.05956481  0.45078876  0.96855024  1  -0.580949
 O  O33  1  0.94043522  0.54921127  0.03144976  1  -0.580949
 O  O34  1  0.44043519  0.54921127  0.46855024  1  -0.580949
 O  O35  1  0.55956478  0.45078876  0.53144976  1  -0.580949
 O  O36  1  0.29921124  0.30956481  0.21855024  1  -0.580949
 O  O37  1  0.70078873  0.69043522  0.78144976  1  -0.580949
 O  O38  1  0.20078876  0.69043522  0.71855024  1  -0.580949
 O  O39  1  0.79921127  0.30956481  0.28144976  1  -0.580949
 O  O40  1  0.55956478  0.95078873  0.46855024  1  -0.580949
 O  O41  1  0.44043519  0.04921124  0.53144976  1  -0.580949
 O  O42  1  0.94043522  0.04921124  0.96855024  1  -0.580949
 O  O43  1  0.05956481  0.95078873  0.03144976  1  -0.580949
 O  O44  1  0.79921127  0.80956478  0.71855024  1  -0.580949
 O  O45  1  0.20078876  0.19043519  0.28144976  1  -0.580949
 O  O46  1  0.70078873  0.19043519  0.21855024  1  -0.580949
 O  O47  1  0.29921124  0.80956478  0.78144976  1  -0.580949
 O  O48  1  0.09534783  0.28616410  0.97872457  1  -0.622726
 O  O49  1  0.90465215  0.71383590  0.02127543  1  -0.622726
 O  O50  1  0.40465215  0.71383590  0.47872457  1  -0.622726
 O  O51  1  0.59534785  0.28616410  0.52127543  1  -0.622726
 O  O52  1  0.46383590  0.34534785  0.22872457  1  -0.622726
 O  O53  1  0.53616410  0.65465215  0.77127543  1  -0.622726
 O  O54  1  0.03616410  0.65465215  0.72872457  1  -0.622726
 O  O55  1  0.96383590  0.34534785  0.27127543  1  -0.622726
 O  O56  1  0.59534785  0.78616410  0.47872457  1  -0.622726
 O  O57  1  0.40465215  0.21383590  0.52127543  1  -0.622726
 O  O58  1  0.90465215  0.21383590  0.97872457  1  -0.622726
 O  O59  1  0.09534783  0.78616410  0.02127543  1  -0.622726
 O  O60  1  0.96383590  0.84534785  0.72872457  1  -0.622726
 O  O61  1  0.03616410  0.15465217  0.27127543  1  -0.622726
 O  O62  1  0.53616410  0.15465217  0.22872457  1  -0.622726
 O  O63  1  0.46383590  0.84534785  0.77127543  1  -0.622726
 O  O64  1  0.04663614  0.65549702  0.78145600  1  -0.572569
 O  O65  1  0.95336384  0.34450298  0.21854400  1  -0.572569
 O  O66  1  0.45336384  0.34450298  0.28145600  1  -0.572569
 O  O67  1  0.54663616  0.65549702  0.71854400  1  -0.572569
 O  O68  1  0.09450298  0.29663616  0.03145600  1  -0.572569
 O  O69  1  0.90549702  0.70336384  0.96854400  1  -0.572569
 O  O70  1  0.40549702  0.70336384  0.53145600  1  -0.572569
 O  O71  1  0.59450298  0.29663616  0.46854400  1  -0.572569
 O  O72  1  0.54663616  0.15549702  0.28145600  1  -0.572569
 O  O73  1  0.45336384  0.84450298  0.71854400  1  -0.572569
 O  O74  1  0.95336384  0.84450298  0.78145600  1  -0.572569
 O  O75  1  0.04663614  0.15549702  0.21854400  1  -0.572569
 O  O76  1  0.59450298  0.79663616  0.53145600  1  -0.572569
 O  O77  1  0.40549702  0.20336386  0.46854400  1  -0.572569
 O  O78  1  0.90549702  0.20336386  0.03145600  1  -0.572569
 O  O79  1  0.09450298  0.79663616  0.96854400  1  -0.572569
 O  O80  1  0.21163741  0.63155240  0.76953151  1  -0.605520
 O  O81  1  0.78836258  0.36844760  0.23046849  1  -0.605520
 O  O82  1  0.28836258  0.36844760  0.26953151  1  -0.605520
 O  O83  1  0.71163742  0.63155240  0.73046849  1  -0.605520
 O  O84  1  0.11844760  0.46163742  0.01953151  1  -0.605520
 O  O85  1  0.88155240  0.53836258  0.98046849  1  -0.605520
 O  O86  1  0.38155240  0.53836258  0.51953151  1  -0.605520
 O  O87  1  0.61844760  0.46163742  0.48046849  1  -0.605520
 O  O88  1  0.71163742  0.13155240  0.26953151  1  -0.605520
 O  O89  1  0.28836258  0.86844760  0.73046849  1  -0.605520
 O  O90  1  0.78836258  0.86844760  0.76953151  1  -0.605520
 O  O91  1  0.21163741  0.13155240  0.23046849  1  -0.605520
 O  O92  1  0.61844760  0.96163742  0.51953151  1  -0.605520
 O  O93  1  0.38155240  0.03836259  0.48046849  1  -0.605520
 O  O94  1  0.88155240  0.03836259  0.01953151  1  -0.605520
 O  O95  1  0.11844760  0.96163742  0.98046849  1  -0.605520
 O  O96  1  0.20401919  0.19569412  0.84958672  1  -0.405194
 O  O97  1  0.79598078  0.80430590  0.15041328  1  -0.405194
 O  O98  1  0.29598081  0.80430590  0.34958672  1  -0.405194
 O  O99  1  0.70401922  0.19569412  0.65041328  1  -0.405194
 O  O100  1  0.55430590  0.45401919  0.09958672  1  -0.405194
 O  O101  1  0.44569410  0.54598078  0.90041328  1  -0.405194
 O  O102  1  0.94569410  0.54598078  0.59958672  1  -0.405194
 O  O103  1  0.05430588  0.45401919  0.40041328  1  -0.405194
 O  O104  1  0.70401922  0.69569410  0.34958672  1  -0.405194
 O  O105  1  0.29598081  0.30430590  0.65041328  1  -0.405194
 O  O106  1  0.79598078  0.30430590  0.84958672  1  -0.405194
 O  O107  1  0.20401919  0.69569410  0.15041328  1  -0.405194
 O  O108  1  0.05430588  0.95401922  0.59958672  1  -0.405194
 O  O109  1  0.94569410  0.04598081  0.40041328  1  -0.405194
 O  O110  1  0.44569410  0.04598081  0.09958672  1  -0.405194
 O  O111  1  0.55430590  0.95401922  0.90041328  1  -0.405194
 H  H112  1  0.86718635  0.37370990  0.99856223  1  0.435657
 H  H113  1  0.13281362  0.62629010  0.00143777  1  0.435657
 H  H114  1  0.63281365  0.62629010  0.49856223  1  0.435657
 H  H115  1  0.36718638  0.37370990  0.50143777  1  0.435657
 H  H116  1  0.37629010  0.11718638  0.24856223  1  0.435657
 H  H117  1  0.62370990  0.88281365  0.75143777  1  0.435657
 H  H118  1  0.12370990  0.88281365  0.74856223  1  0.435657
 H  H119  1  0.87629010  0.11718638  0.25143777  1  0.435657
 H  H120  1  0.36718638  0.87370990  0.49856223  1  0.435657
 H  H121  1  0.63281365  0.12629010  0.50143777  1  0.435657
 H  H122  1  0.13281362  0.12629010  0.99856223  1  0.435657
 H  H123  1  0.86718635  0.87370990  0.00143777  1  0.435657
 H  H124  1  0.87629010  0.61718635  0.74856223  1  0.435657
 H  H125  1  0.12370990  0.38281362  0.25143777  1  0.435657
 H  H126  1  0.62370990  0.38281362  0.24856223  1  0.435657
 H  H127  1  0.37629010  0.61718635  0.75143777  1  0.435657
 H  H128  1  0.13126031  0.17755679  0.94081535  1  0.109450
 H  H129  1  0.86873967  0.82244319  0.05918465  1  0.109450
 H  H130  1  0.36873967  0.82244319  0.44081535  1  0.109450
 H  H131  1  0.63126033  0.17755679  0.55918465  1  0.109450
 H  H132  1  0.57244319  0.38126033  0.19081535  1  0.109450
 H  H133  1  0.42755681  0.61873967  0.80918465  1  0.109450
 H  H134  1  0.92755681  0.61873967  0.69081535  1  0.109450
 H  H135  1  0.07244321  0.38126033  0.30918465  1  0.109450
 H  H136  1  0.63126033  0.67755681  0.44081535  1  0.109450
 H  H137  1  0.36873967  0.32244319  0.55918465  1  0.109450
 H  H138  1  0.86873967  0.32244319  0.94081535  1  0.109450
 H  H139  1  0.13126031  0.67755681  0.05918465  1  0.109450
 H  H140  1  0.07244321  0.88126033  0.69081535  1  0.109450
 H  H141  1  0.92755681  0.11873969  0.30918465  1  0.109450
 H  H142  1  0.42755681  0.11873969  0.19081535  1  0.109450
 H  H143  1  0.57244319  0.88126033  0.80918465  1  0.109450
 H  H144  1  0.16376285  0.14436688  0.89437025  1  0.106003
 H  H145  1  0.83623713  0.85563312  0.10562975  1  0.106003
 H  H146  1  0.33623713  0.85563312  0.39437025  1  0.106003
 H  H147  1  0.66376287  0.14436688  0.60562975  1  0.106003
 H  H148  1  0.60563312  0.41376287  0.14437025  1  0.106003
 H  H149  1  0.39436688  0.58623713  0.85562975  1  0.106003
 H  H150  1  0.89436688  0.58623713  0.64437025  1  0.106003
 H  H151  1  0.10563312  0.41376287  0.35562975  1  0.106003
 H  H152  1  0.66376287  0.64436688  0.39437025  1  0.106003
 H  H153  1  0.33623713  0.35563312  0.60562975  1  0.106003
 H  H154  1  0.83623713  0.35563312  0.89437025  1  0.106003
 H  H155  1  0.16376285  0.64436688  0.10562975  1  0.106003
 H  H156  1  0.10563312  0.91376287  0.64437025  1  0.106003
 H  H157  1  0.89436688  0.08623715  0.35562975  1  0.106003
 H  H158  1  0.39436688  0.08623715  0.14437025  1  0.106003
 H  H159  1  0.60563312  0.91376287  0.85562975  1  0.106003
 H  H160  1  0.14471760  0.46888194  0.87959800  1  0.102881
 H  H161  1  0.85528238  0.53111806  0.12040200  1  0.102881
 H  H162  1  0.35528240  0.53111806  0.37959800  1  0.102881
 H  H163  1  0.64471762  0.46888194  0.62040200  1  0.102881
 H  H164  1  0.28111806  0.39471760  0.12959800  1  0.102881
 H  H165  1  0.71888194  0.60528238  0.87040200  1  0.102881
 H  H166  1  0.21888194  0.60528238  0.62959800  1  0.102881
 H  H167  1  0.78111806  0.39471760  0.37040200  1  0.102881
 H  H168  1  0.64471762  0.96888194  0.37959800  1  0.102881
 H  H169  1  0.35528240  0.03111806  0.62040200  1  0.102881
 H  H170  1  0.85528238  0.03111806  0.87959800  1  0.102881
 H  H171  1  0.14471760  0.96888194  0.12040200  1  0.102881
 H  H172  1  0.78111806  0.89471762  0.62959800  1  0.102881
 H  H173  1  0.21888194  0.10528240  0.37040200  1  0.102881
 H  H174  1  0.71888194  0.10528240  0.12959800  1  0.102881
 H  H175  1  0.28111806  0.89471762  0.87040200  1  0.102881
 H  H176  1  0.11092380  0.50102796  0.92572975  1  0.121320
 H  H177  1  0.88907617  0.49897201  0.07427025  1  0.121320
 H  H178  1  0.38907620  0.49897201  0.42572975  1  0.121320
 H  H179  1  0.61092383  0.50102796  0.57427025  1  0.121320
 H  H180  1  0.24897204  0.36092380  0.17572975  1  0.121320
 H  H181  1  0.75102799  0.63907617  0.82427025  1  0.121320
 H  H182  1  0.25102796  0.63907617  0.67572975  1  0.121320
 H  H183  1  0.74897201  0.36092380  0.32427025  1  0.121320
 H  H184  1  0.61092383  0.00102799  0.42572975  1  0.121320
 H  H185  1  0.38907620  0.99897204  0.57427025  1  0.121320
 H  H186  1  0.88907617  0.99897204  0.92572975  1  0.121320
 H  H187  1  0.11092380  0.00102799  0.07427025  1  0.121320
 H  H188  1  0.74897201  0.86092383  0.67572975  1  0.121320
 H  H189  1  0.25102796  0.13907620  0.32427025  1  0.121320
 H  H190  1  0.75102799  0.13907620  0.17572975  1  0.121320
 H  H191  1  0.24897204  0.86092383  0.82427025  1  0.121320
 H  H192  1  0.31525118  0.34745935  0.82320571  1  0.114682
 H  H193  1  0.68474885  0.65254065  0.17679429  1  0.114682
 H  H194  1  0.18474882  0.65254065  0.32320571  1  0.114682
 H  H195  1  0.81525115  0.34745935  0.67679429  1  0.114682
 H  H196  1  0.40254065  0.56525115  0.07320571  1  0.114682
 H  H197  1  0.59745935  0.43474882  0.92679429  1  0.114682
 H  H198  1  0.09745935  0.43474882  0.57320571  1  0.114682
 H  H199  1  0.90254065  0.56525115  0.42679429  1  0.114682
 H  H200  1  0.81525115  0.84745935  0.32320571  1  0.114681
 H  H201  1  0.18474882  0.15254065  0.67679429  1  0.114681
 H  H202  1  0.68474885  0.15254065  0.82320571  1  0.114681
 H  H203  1  0.31525118  0.84745935  0.17679429  1  0.114681
 H  H204  1  0.90254065  0.06525118  0.57320571  1  0.114681
 H  H205  1  0.09745935  0.93474885  0.42679429  1  0.114681
 H  H206  1  0.59745935  0.93474885  0.07320571  1  0.114681
 H  H207  1  0.40254065  0.06525118  0.92679429  1  0.114681
 H  H208  1  0.29911349  0.49058902  0.79168542  1  0.110164
 H  H209  1  0.70088651  0.50941098  0.20831458  1  0.110164
 H  H210  1  0.20088651  0.50941098  0.29168542  1  0.110164
 H  H211  1  0.79911349  0.49058902  0.70831458  1  0.110164
 H  H212  1  0.25941098  0.54911349  0.04168542  1  0.110164
 H  H213  1  0.74058902  0.45088651  0.95831458  1  0.110164
 H  H214  1  0.24058902  0.45088651  0.54168542  1  0.110164
 H  H215  1  0.75941098  0.54911349  0.45831458  1  0.110164
 H  H216  1  0.79911349  0.99058902  0.29168542  1  0.110164
 H  H217  1  0.20088651  0.00941098  0.70831458  1  0.110164
 H  H218  1  0.70088651  0.00941098  0.79168542  1  0.110164
 H  H219  1  0.29911349  0.99058902  0.20831458  1  0.110164
 H  H220  1  0.75941098  0.04911349  0.54168542  1  0.110164
 H  H221  1  0.24058902  0.95088651  0.45831458  1  0.110164
 H  H222  1  0.74058902  0.95088651  0.04168542  1  0.110164
 H  H223  1  0.25941098  0.04911349  0.95831458  1  0.110164
 H  H224  1  0.98608083  0.53800602  0.81457299  1  0.120495
 H  H225  1  0.01391918  0.46199398  0.18542701  1  0.120495
 H  H226  1  0.51391917  0.46199398  0.31457299  1  0.120495
 H  H227  1  0.48608083  0.53800602  0.68542701  1  0.120495
 H  H228  1  0.21199398  0.23608082  0.06457299  1  0.120495
 H  H229  1  0.78800602  0.76391917  0.93542701  1  0.120495
 H  H230  1  0.28800602  0.76391917  0.56457299  1  0.120495
 H  H231  1  0.71199398  0.23608082  0.43542701  1  0.120495
 H  H232  1  0.48608083  0.03800602  0.31457299  1  0.120495
 H  H233  1  0.51391917  0.96199398  0.68542701  1  0.120495
 H  H234  1  0.01391918  0.96199398  0.81457299  1  0.120495
 H  H235  1  0.98608083  0.03800602  0.18542701  1  0.120495
 H  H236  1  0.71199398  0.73608083  0.56457299  1  0.120495
 H  H237  1  0.28800602  0.26391917  0.43542701  1  0.120495
 H  H238  1  0.78800602  0.26391917  0.06457299  1  0.120495
 H  H239  1  0.21199398  0.73608083  0.93542701  1  0.120495
 H  H240  1  0.00287046  0.39959577  0.84715131  1  0.108376
 H  H241  1  0.99712956  0.60040426  0.15284869  1  0.108376
 H  H242  1  0.49712953  0.60040426  0.34715131  1  0.108376
 H  H243  1  0.50287044  0.39959577  0.65284869  1  0.108376
 H  H244  1  0.35040423  0.25287047  0.09715131  1  0.108376
 H  H245  1  0.64959574  0.74712956  0.90284869  1  0.108376
 H  H246  1  0.14959577  0.74712956  0.59715131  1  0.108376
 H  H247  1  0.85040426  0.25287047  0.40284869  1  0.108376
 H  H248  1  0.50287044  0.89959574  0.34715131  1  0.108376
 H  H249  1  0.49712953  0.10040423  0.65284869  1  0.108376
 H  H250  1  0.99712956  0.10040423  0.84715131  1  0.108376
 H  H251  1  0.00287046  0.89959574  0.15284869  1  0.108376
 H  H252  1  0.85040426  0.75287044  0.59715131  1  0.108376
 H  H253  1  0.14959577  0.24712955  0.40284869  1  0.108376
 H  H254  1  0.64959574  0.24712955  0.09715131  1  0.108376
 H  H255  1  0.35040423  0.75287044  0.90284869  1  0.108376
 C  C256  1  0.09041465  0.36096437  0.96302215  1  0.631125
 C  C257  1  0.90958537  0.63903560  0.03697785  1  0.631125
 C  C258  1  0.40958534  0.63903560  0.46302215  1  0.631125
 C  C259  1  0.59041463  0.36096437  0.53697785  1  0.631125
 C  C260  1  0.38903563  0.34041466  0.21302215  1  0.631125
 C  C261  1  0.61096440  0.65958537  0.78697785  1  0.631125
 C  C262  1  0.11096437  0.65958537  0.71302215  1  0.631125
 C  C263  1  0.88903560  0.34041466  0.28697785  1  0.631125
 C  C264  1  0.59041463  0.86096440  0.46302215  1  0.631125
 C  C265  1  0.40958534  0.13903563  0.53697785  1  0.631125
 C  C266  1  0.90958537  0.13903563  0.96302215  1  0.631125
 C  C267  1  0.09041465  0.86096440  0.03697785  1  0.631125
 C  C268  1  0.88903560  0.84041463  0.71302215  1  0.631125
 C  C269  1  0.11096437  0.15958534  0.28697785  1  0.631125
 C  C270  1  0.61096440  0.15958534  0.21302215  1  0.631125
 C  C271  1  0.38903563  0.84041463  0.78697785  1  0.631125
 C  C272  1  0.11893441  0.34137206  0.93587402  1  -0.028396
 C  C273  1  0.88106562  0.65862794  0.06412598  1  -0.028396
 C  C274  1  0.38106559  0.65862794  0.43587402  1  -0.028396
 C  C275  1  0.61893438  0.34137206  0.56412598  1  -0.028396
 C  C276  1  0.40862794  0.36893441  0.18587402  1  -0.028396
 C  C277  1  0.59137206  0.63106562  0.81412598  1  -0.028396
 C  C278  1  0.09137206  0.63106562  0.68587402  1  -0.028396
 C  C279  1  0.90862794  0.36893441  0.31412598  1  -0.028396
 C  C280  1  0.61893438  0.84137206  0.43587402  1  -0.028396
 C  C281  1  0.38106559  0.15862794  0.56412598  1  -0.028396
 C  C282  1  0.88106562  0.15862794  0.93587402  1  -0.028396
 C  C283  1  0.11893441  0.84137206  0.06412598  1  -0.028396
 C  C284  1  0.90862794  0.86893438  0.68587402  1  -0.028396
 C  C285  1  0.09137206  0.13106559  0.31412598  1  -0.028396
 C  C286  1  0.59137206  0.13106559  0.18587402  1  -0.028396
 C  C287  1  0.40862794  0.86893438  0.81412598  1  -0.028396
 C  C288  1  0.13481610  0.24063128  0.92720880  1  -0.091271
 C  C289  1  0.86518388  0.75936875  0.07279120  1  -0.091271
 C  C290  1  0.36518388  0.75936875  0.42720880  1  -0.091271
 C  C291  1  0.63481612  0.24063128  0.57279120  1  -0.091271
 C  C292  1  0.50936872  0.38481612  0.17720880  1  -0.091271
 C  C293  1  0.49063125  0.61518388  0.82279120  1  -0.091271
 C  C294  1  0.99063128  0.61518388  0.67720880  1  -0.091271
 C  C295  1  0.00936875  0.38481612  0.32279120  1  -0.091271
 C  C296  1  0.63481612  0.74063125  0.42720880  1  -0.091271
 C  C297  1  0.36518388  0.25936872  0.57279120  1  -0.091271
 C  C298  1  0.86518388  0.25936872  0.92720880  1  -0.091271
 C  C299  1  0.13481610  0.74063125  0.07279120  1  -0.091271
 C  C300  1  0.00936875  0.88481612  0.67720880  1  -0.091271
 C  C301  1  0.99063128  0.11518390  0.32279120  1  -0.091271
 C  C302  1  0.49063125  0.11518390  0.17720880  1  -0.091271
 C  C303  1  0.50936872  0.88481612  0.82279120  1  -0.091271
 C  C304  1  0.15186240  0.22205794  0.90149377  1  -0.085641
 C  C305  1  0.84813758  0.77794208  0.09850623  1  -0.085641
 C  C306  1  0.34813758  0.77794208  0.40149377  1  -0.085641
 C  C307  1  0.65186242  0.22205794  0.59850623  1  -0.085641
 C  C308  1  0.52794208  0.40186242  0.15149377  1  -0.085641
 C  C309  1  0.47205792  0.59813758  0.84850623  1  -0.085641
 C  C310  1  0.97205792  0.59813758  0.65149377  1  -0.085641
 C  C311  1  0.02794206  0.40186242  0.34850623  1  -0.085641
 C  C312  1  0.65186242  0.72205792  0.40149377  1  -0.085641
 C  C313  1  0.34813758  0.27794208  0.59850623  1  -0.085641
 C  C314  1  0.84813758  0.27794208  0.90149377  1  -0.085641
 C  C315  1  0.15186240  0.72205792  0.09850623  1  -0.085641
 C  C316  1  0.02794206  0.90186242  0.65149377  1  -0.085641
 C  C317  1  0.97205792  0.09813760  0.34850623  1  -0.085641
 C  C318  1  0.47205792  0.09813760  0.15149377  1  -0.085641
 C  C319  1  0.52794208  0.90186242  0.84850623  1  -0.085641
 C  C320  1  0.15368193  0.30387348  0.88400980  1  -0.012963
 C  C321  1  0.84631804  0.69612655  0.11599020  1  -0.012963
 C  C322  1  0.34631807  0.69612655  0.38400980  1  -0.012963
 C  C323  1  0.65368196  0.30387348  0.61599020  1  -0.012963
 C  C324  1  0.44612652  0.40368193  0.13400980  1  -0.012963
 C  C325  1  0.55387345  0.59631804  0.86599020  1  -0.012963
 C  C326  1  0.05387348  0.59631804  0.63400980  1  -0.012963
 C  C327  1  0.94612655  0.40368193  0.36599020  1  -0.012963
 C  C328  1  0.65368196  0.80387345  0.38400980  1  -0.012963
 C  C329  1  0.34631807  0.19612652  0.61599020  1  -0.012963
 C  C330  1  0.84631804  0.19612652  0.88400980  1  -0.012963
 C  C331  1  0.15368193  0.80387345  0.11599020  1  -0.012963
 C  C332  1  0.94612655  0.90368196  0.63400980  1  -0.012963
 C  C333  1  0.05387348  0.09631807  0.36599020  1  -0.012963
 C  C334  1  0.55387345  0.09631807  0.13400980  1  -0.012963
 C  C335  1  0.44612652  0.90368196  0.86599020  1  -0.012963
 C  C336  1  0.14049931  0.40479766  0.89289100  1  -0.095588
 C  C337  1  0.85950071  0.59520237  0.10710900  1  -0.095588
 C  C338  1  0.35950071  0.59520237  0.39289100  1  -0.095588
 C  C339  1  0.64049929  0.40479766  0.60710900  1  -0.095588
 C  C340  1  0.34520234  0.39049929  0.14289100  1  -0.095588
 C  C341  1  0.65479763  0.60950071  0.85710900  1  -0.095588
 C  C342  1  0.15479766  0.60950071  0.64289100  1  -0.095588
 C  C343  1  0.84520237  0.39049929  0.35710900  1  -0.095588
 C  C344  1  0.64049929  0.90479763  0.39289100  1  -0.095588
 C  C345  1  0.35950071  0.09520234  0.60710900  1  -0.095588
 C  C346  1  0.85950071  0.09520234  0.89289100  1  -0.095588
 C  C347  1  0.14049931  0.90479763  0.10710900  1  -0.095588
 C  C348  1  0.84520237  0.89049929  0.64289100  1  -0.095588
 C  C349  1  0.15479766  0.10950069  0.35710900  1  -0.095588
 C  C350  1  0.65479763  0.10950069  0.14289100  1  -0.095588
 C  C351  1  0.34520234  0.89049929  0.85710900  1  -0.095588
 C  C352  1  0.12281983  0.42335975  0.91863163  1  -0.080388
 C  C353  1  0.87718017  0.57664025  0.08136837  1  -0.080388
 C  C354  1  0.37718017  0.57664025  0.41863163  1  -0.080388
 C  C355  1  0.62281983  0.42335975  0.58136837  1  -0.080388
 C  C356  1  0.32664025  0.37281983  0.16863163  1  -0.080388
 C  C357  1  0.67335975  0.62718017  0.83136837  1  -0.080388
 C  C358  1  0.17335975  0.62718017  0.66863163  1  -0.080388
 C  C359  1  0.82664025  0.37281983  0.33136837  1  -0.080388
 C  C360  1  0.62281983  0.92335975  0.41863163  1  -0.080388
 C  C361  1  0.37718017  0.07664025  0.58136837  1  -0.080388
 C  C362  1  0.87718017  0.07664025  0.91863163  1  -0.080388
 C  C363  1  0.12281983  0.92335975  0.08136837  1  -0.080388
 C  C364  1  0.82664025  0.87281983  0.66863163  1  -0.080388
 C  C365  1  0.17335975  0.12718017  0.33136837  1  -0.080388
 C  C366  1  0.67335975  0.12718017  0.16863163  1  -0.080388
 C  C367  1  0.32664025  0.87281983  0.83136837  1  -0.080388
 C  C368  1  0.17433387  0.28118276  0.85659190  1  0.350819
 C  C369  1  0.82566616  0.71881724  0.14340810  1  0.350819
 C  C370  1  0.32566613  0.71881724  0.35659190  1  0.350819
 C  C371  1  0.67433384  0.28118276  0.64340810  1  0.350819
 C  C372  1  0.46881724  0.42433387  0.10659190  1  0.350819
 C  C373  1  0.53118276  0.57566616  0.89340810  1  0.350819
 C  C374  1  0.03118276  0.57566616  0.60659190  1  0.350819
 C  C375  1  0.96881724  0.42433387  0.39340810  1  0.350819
 C  C376  1  0.67433384  0.78118276  0.35659190  1  0.350819
 C  C377  1  0.32566613  0.21881724  0.64340810  1  0.350819
 C  C378  1  0.82566616  0.21881724  0.85659190  1  0.350819
 C  C379  1  0.17433387  0.78118276  0.14340810  1  0.350819
 C  C380  1  0.96881724  0.92433384  0.60659190  1  0.350819
 C  C381  1  0.03118276  0.07566613  0.39340810  1  0.350819
 C  C382  1  0.53118276  0.07566613  0.10659190  1  0.350819
 C  C383  1  0.46881724  0.92433384  0.89340810  1  0.350819
 C  C384  1  0.16112674  0.36586187  0.83748635  1  0.008689
 C  C385  1  0.83887324  0.63413813  0.16251365  1  0.008689
 C  C386  1  0.33887324  0.63413813  0.33748635  1  0.008689
 C  C387  1  0.66112676  0.36586187  0.66251365  1  0.008689
 C  C388  1  0.38413813  0.41112676  0.08748635  1  0.008689
 C  C389  1  0.61586187  0.58887324  0.91251365  1  0.008689
 C  C390  1  0.11586187  0.58887324  0.58748635  1  0.008689
 C  C391  1  0.88413813  0.41112676  0.41251365  1  0.008689
 C  C392  1  0.66112676  0.86586187  0.33748635  1  0.008689
 C  C393  1  0.33887324  0.13413813  0.66251365  1  0.008689
 C  C394  1  0.83887324  0.13413813  0.83748635  1  0.008689
 C  C395  1  0.16112674  0.86586187  0.16251365  1  0.008689
 C  C396  1  0.88413813  0.91112676  0.58748635  1  0.008689
 C  C397  1  0.11586187  0.08887326  0.41251365  1  0.008689
 C  C398  1  0.61586187  0.08887326  0.08748635  1  0.008689
 C  C399  1  0.38413813  0.91112676  0.91251365  1  0.008689
 C  C400  1  0.24371539  0.39025313  0.82142747  1  -0.103013
 C  C401  1  0.75628461  0.60974684  0.17857253  1  -0.103013
 C  C402  1  0.25628461  0.60974684  0.32142747  1  -0.103013
 C  C403  1  0.74371539  0.39025313  0.67857253  1  -0.103013
 C  C404  1  0.35974687  0.49371539  0.07142747  1  -0.103013
 C  C405  1  0.64025316  0.50628461  0.92857253  1  -0.103013
 C  C406  1  0.14025313  0.50628461  0.57142747  1  -0.103013
 C  C407  1  0.85974684  0.49371539  0.42857253  1  -0.103013
 C  C408  1  0.74371539  0.89025316  0.32142747  1  -0.103012
 C  C409  1  0.25628461  0.10974687  0.67857253  1  -0.103012
 C  C410  1  0.75628461  0.10974687  0.82142747  1  -0.103012
 C  C411  1  0.24371539  0.89025316  0.17857253  1  -0.103012
 C  C412  1  0.85974684  0.99371539  0.57142747  1  -0.103012
 C  C413  1  0.14025313  0.00628461  0.42857253  1  -0.103012
 C  C414  1  0.64025316  0.00628461  0.07142747  1  -0.103012
 C  C415  1  0.35974687  0.99371539  0.92857253  1  -0.103012
 C  C416  1  0.23466156  0.46958707  0.80383795  1  -0.084426
 C  C417  1  0.76533847  0.53041293  0.19616205  1  -0.084426
 C  C418  1  0.26533844  0.53041293  0.30383795  1  -0.084426
 C  C419  1  0.73466153  0.46958707  0.69616205  1  -0.084426
 C  C420  1  0.28041293  0.48466156  0.05383795  1  -0.084426
 C  C421  1  0.71958707  0.51533847  0.94616205  1  -0.084426
 C  C422  1  0.21958707  0.51533847  0.55383795  1  -0.084426
 C  C423  1  0.78041293  0.48466156  0.44616205  1  -0.084426
 C  C424  1  0.73466153  0.96958707  0.30383795  1  -0.084426
 C  C425  1  0.26533844  0.03041293  0.69616205  1  -0.084426
 C  C426  1  0.76533847  0.03041293  0.80383795  1  -0.084426
 C  C427  1  0.23466156  0.96958707  0.19616205  1  -0.084426
 C  C428  1  0.78041293  0.98466153  0.55383795  1  -0.084426
 C  C429  1  0.21958707  0.01533844  0.44616205  1  -0.084426
 C  C430  1  0.71958707  0.01533844  0.05383795  1  -0.084426
 C  C431  1  0.28041293  0.98466153  0.94616205  1  -0.084426
 C  C432  1  0.14199306  0.52358471  0.80150295  1  -0.051491
 C  C433  1  0.85800695  0.47641529  0.19849705  1  -0.051491
 C  C434  1  0.35800695  0.47641529  0.30150295  1  -0.051491
 C  C435  1  0.64199305  0.52358471  0.69849705  1  -0.051491
 C  C436  1  0.22641529  0.39199305  0.05150295  1  -0.051491
 C  C437  1  0.77358471  0.60800695  0.94849705  1  -0.051491
 C  C438  1  0.27358471  0.60800695  0.55150295  1  -0.051491
 C  C439  1  0.72641529  0.39199305  0.44849705  1  -0.051491
 C  C440  1  0.64199305  0.02358471  0.30150295  1  -0.051491
 C  C441  1  0.35800695  0.97641529  0.69849705  1  -0.051491
 C  C442  1  0.85800695  0.97641529  0.80150295  1  -0.051491
 C  C443  1  0.14199306  0.02358471  0.19849705  1  -0.051491
 C  C444  1  0.72641529  0.89199305  0.55150295  1  -0.051491
 C  C445  1  0.27358471  0.10800694  0.44849705  1  -0.051491
 C  C446  1  0.77358471  0.10800694  0.05150295  1  -0.051491
 C  C447  1  0.22641529  0.89199305  0.94849705  1  -0.051491
 C  C448  1  0.05821704  0.49677675  0.81691686  1  -0.077726
 C  C449  1  0.94178293  0.50322325  0.18308314  1  -0.077726
 C  C450  1  0.44178296  0.50322325  0.31691686  1  -0.077726
 C  C451  1  0.55821707  0.49677675  0.68308314  1  -0.077726
 C  C452  1  0.25322325  0.30821704  0.06691686  1  -0.077726
 C  C453  1  0.74677675  0.69178293  0.93308314  1  -0.077726
 C  C454  1  0.24677675  0.69178293  0.56691686  1  -0.077726
 C  C455  1  0.75322325  0.30821704  0.43308314  1  -0.077726
 C  C456  1  0.55821707  0.99677675  0.31691686  1  -0.077726
 C  C457  1  0.44178296  0.00322325  0.68308314  1  -0.077726
 C  C458  1  0.94178293  0.00322325  0.81691686  1  -0.077726
 C  C459  1  0.05821704  0.99677675  0.18308314  1  -0.077726
 C  C460  1  0.75322325  0.80821707  0.56691686  1  -0.077726
 C  C461  1  0.24677675  0.19178296  0.43308314  1  -0.077726
 C  C462  1  0.74677675  0.19178296  0.06691686  1  -0.077726
 C  C463  1  0.25322325  0.80821707  0.93308314  1  -0.077726
 C  C464  1  0.06810799  0.41941065  0.83507376  1  -0.117038
 C  C465  1  0.93189202  0.58058935  0.16492624  1  -0.117038
 C  C466  1  0.43189202  0.58058935  0.33507376  1  -0.117038
 C  C467  1  0.56810798  0.41941065  0.66492624  1  -0.117038
 C  C468  1  0.33058935  0.31810798  0.08507376  1  -0.117038
 C  C469  1  0.66941065  0.68189202  0.91492624  1  -0.117038
 C  C470  1  0.16941065  0.68189202  0.58507376  1  -0.117038
 C  C471  1  0.83058935  0.31810798  0.41492624  1  -0.117038
 C  C472  1  0.56810798  0.91941065  0.33507376  1  -0.117038
 C  C473  1  0.43189202  0.08058935  0.66492624  1  -0.117038
 C  C474  1  0.93189202  0.08058935  0.83507376  1  -0.117038
 C  C475  1  0.06810799  0.91941065  0.16492624  1  -0.117038
 C  C476  1  0.83058935  0.81810798  0.58507376  1  -0.117038
 C  C477  1  0.16941065  0.18189202  0.41492624  1  -0.117038
 C  C478  1  0.66941065  0.18189202  0.08507376  1  -0.117038
 C  C479  1  0.33058935  0.81810798  0.91492624  1  -0.117038
 C  C480  1  0.13267821  0.60953725  0.78288961  1  0.642433
 C  C481  1  0.86732181  0.39046275  0.21711039  1  0.642433
 C  C482  1  0.36732181  0.39046275  0.28288961  1  0.642433
 C  C483  1  0.63267819  0.60953725  0.71711039  1  0.642433
 C  C484  1  0.14046275  0.38267819  0.03288961  1  0.642433
 C  C485  1  0.85953725  0.61732181  0.96711039  1  0.642433
 C  C486  1  0.35953725  0.61732181  0.53288961  1  0.642433
 C  C487  1  0.64046275  0.38267819  0.46711039  1  0.642433
 C  C488  1  0.63267819  0.10953725  0.28288961  1  0.642433
 C  C489  1  0.36732181  0.89046275  0.71711039  1  0.642433
 C  C490  1  0.86732181  0.89046275  0.78288961  1  0.642433
 C  C491  1  0.13267821  0.10953725  0.21711039  1  0.642433
 C  C492  1  0.64046275  0.88267819  0.53288961  1  0.642433
 C  C493  1  0.35953725  0.11732179  0.46711039  1  0.642433
 C  C494  1  0.85953725  0.11732179  0.03288961  1  0.642433
 C  C495  1  0.14046275  0.88267819  0.96711039  1  0.642433
