# generated using pymatgen
data_cau-10-ch3
_symmetry_space_group_name_H-M   'P 1'
_cell_length_a   21.55699079
_cell_length_b   21.55797859
_cell_length_c   9.90955706
_cell_angle_alpha   89.99211693
_cell_angle_beta   89.97352573
_cell_angle_gamma   90.00475354
_symmetry_Int_Tables_number   1
_chemical_formula_structural   Al16 H112 C144 O80
_chemical_formula_sum   'O80 C144 H112 Al16'
_cell_volume   4605.21980228
_cell_formula_units_Z   6
loop_
 _symmetry_equiv_pos_site_id
 _symmetry_equiv_pos_as_xyz
  1  'x, y, z'
loop_
 _atom_site_type_symbol
 _atom_site_label
 _atom_site_symmetry_multiplicity
 _atom_site_fract_x
 _atom_site_fract_y
 _atom_site_fract_z
 _atom_site_occupancy
 _atom_site_charge
 O  O0  1  0.38563166  0.01240950  0.13345385  1  -0.583329
 O  O1  1  0.61395732  0.98826482  0.86546296  1  -0.583739
 O  O2  1  0.11405297  0.98770736  0.63368938  1  -0.584464
 O  O3  1  0.88580045  0.01179842  0.36522712  1  -0.583597
 O  O4  1  0.23903631  0.13463527  0.38742731  1  -0.584169
 O  O5  1  0.76161017  0.86413074  0.61525261  1  -0.583884
 O  O6  1  0.26059656  0.86541769  0.88744917  1  -0.584302
 O  O7  1  0.73808573  0.13596176  0.11559837  1  -0.583126
 O  O8  1  0.11546056  0.01056162  0.36686060  1  -0.588337
 O  O9  1  0.88408201  0.98825835  0.63150827  1  -0.588469
 O  O10  1  0.38414754  0.98946176  0.86677042  1  -0.588540
 O  O11  1  0.61566795  0.01182477  0.13157643  1  -0.588154
 O  O12  1  0.26214707  0.13531443  0.12088513  1  -0.587465
 O  O13  1  0.73806569  0.86578051  0.88158986  1  -0.588117
 O  O14  1  0.23756270  0.86476909  0.62082331  1  -0.588270
 O  O15  1  0.76160731  0.13427667  0.38170582  1  -0.588265
 O  O16  1  0.88450535  0.51058686  0.63830154  1  -0.584182
 O  O17  1  0.11485987  0.48884793  0.37089311  1  -0.588443
 O  O18  1  0.61539678  0.48952851  0.13835329  1  -0.584403
 O  O19  1  0.38494830  0.51126804  0.87060086  1  -0.588327
 O  O20  1  0.73780185  0.63587275  0.88439065  1  -0.584934
 O  O21  1  0.26106945  0.36496813  0.12064267  1  -0.588238
 O  O22  1  0.76199040  0.36432931  0.38462911  1  -0.583988
 O  O23  1  0.23872945  0.63512264  0.62064700  1  -0.587579
 O  O24  1  0.61468203  0.51253583  0.87181408  1  -0.587526
 O  O25  1  0.38480823  0.48839790  0.13731251  1  -0.584251
 O  O26  1  0.88522598  0.48768593  0.37163575  1  -0.587230
 O  O27  1  0.11505071  0.51161292  0.63772170  1  -0.583777
 O  O28  1  0.76061409  0.63446143  0.61752216  1  -0.588994
 O  O29  1  0.23824209  0.36516225  0.38746480  1  -0.583464
 O  O30  1  0.73921987  0.36568906  0.11798041  1  -0.589291
 O  O31  1  0.26160085  0.63491833  0.88739757  1  -0.584719
 O  O32  1  0.33850550  0.07470495  0.28728826  1  -0.587086
 O  O33  1  0.66079965  0.92425445  0.71423023  1  -0.586233
 O  O34  1  0.16112443  0.92530034  0.78734726  1  -0.586985
 O  O35  1  0.83892934  0.07582197  0.21411479  1  -0.584381
 O  O36  1  0.17406949  0.08734746  0.53571606  1  -0.585767
 O  O37  1  0.82562136  0.91098815  0.46396448  1  -0.584817
 O  O38  1  0.32550540  0.91272779  0.03571931  1  -0.585842
 O  O39  1  0.67423990  0.08913345  0.96410487  1  -0.584673
 O  O40  1  0.16384834  0.07294323  0.21419680  1  -0.605867
 O  O41  1  0.83534583  0.92821703  0.78768774  1  -0.606667
 O  O42  1  0.33579402  0.92711789  0.71412573  1  -0.606058
 O  O43  1  0.66433088  0.07169216  0.28804696  1  -0.606689
 O  O44  1  0.32221720  0.08745628  0.96319659  1  -0.605026
 O  O45  1  0.67814341  0.91454780  0.03793551  1  -0.606042
 O  O46  1  0.17739672  0.91259908  0.46333706  1  -0.607337
 O  O47  1  0.82168158  0.08553929  0.53768767  1  -0.607216
 O  O48  1  0.83732294  0.57575538  0.78628304  1  -0.586168
 O  O49  1  0.16276505  0.42728413  0.21596609  1  -0.605911
 O  O50  1  0.66253813  0.42458555  0.28681560  1  -0.586095
 O  O51  1  0.33708794  0.57285732  0.71571906  1  -0.606252
 O  O52  1  0.67544931  0.58878826  0.03823951  1  -0.586809
 O  O53  1  0.32268640  0.41290411  0.96580132  1  -0.605670
 O  O54  1  0.82450703  0.41133522  0.53809831  1  -0.586978
 O  O55  1  0.17709064  0.58717555  0.46600630  1  -0.606043
 O  O56  1  0.66260140  0.57261431  0.71421778  1  -0.606561
 O  O57  1  0.33745239  0.42490789  0.28841931  1  -0.586177
 O  O58  1  0.83731628  0.42753348  0.21428498  1  -0.606259
 O  O59  1  0.16234481  0.57515756  0.78867913  1  -0.586969
 O  O60  1  0.82300165  0.58601976  0.46499646  1  -0.606622
 O  O61  1  0.17484900  0.41247300  0.53879891  1  -0.586415
 O  O62  1  0.67704109  0.41416196  0.96519556  1  -0.607027
 O  O63  1  0.32502221  0.58761143  0.03859224  1  -0.587282
 O  O64  1  0.25991286  0.00724557  0.13229803  1  -0.996688
 O  O65  1  0.73829614  0.99460406  0.86232523  1  -0.997331
 O  O66  1  0.23970919  0.99284288  0.63232280  1  -0.996230
 O  O67  1  0.76150405  0.00538980  0.36225464  1  -0.996931
 O  O68  1  0.24327560  0.00900804  0.38231916  1  -0.996106
 O  O69  1  0.75527129  0.98844644  0.61229743  1  -0.997555
 O  O70  1  0.25632118  0.99098946  0.88245592  1  -0.994426
 O  O71  1  0.74452930  0.01168360  0.11229395  1  -0.998052
 O  O72  1  0.75894197  0.50660992  0.63321343  1  -0.995873
 O  O73  1  0.24266568  0.49101842  0.38275694  1  -0.994693
 O  O74  1  0.74100310  0.49353183  0.13321893  1  -0.994661
 O  O75  1  0.25716011  0.50908897  0.88273598  1  -0.993935
 O  O76  1  0.74282458  0.51020195  0.88312436  1  -0.996258
 O  O77  1  0.25891893  0.49278987  0.13272997  1  -0.995247
 O  O78  1  0.75714020  0.49003590  0.38313947  1  -0.996390
 O  O79  1  0.24089675  0.50732239  0.63275911  1  -0.995025
 C  C80  1  0.44576344  0.08012365  0.44169708  1  -0.136094
 C  C81  1  0.55384985  0.92026901  0.55758850  1  -0.138519
 C  C82  1  0.05375098  0.91972630  0.94170008  1  -0.136398
 C  C83  1  0.94596300  0.07956981  0.05704147  1  -0.138051
 C  C84  1  0.16917571  0.19406146  0.69392335  1  -0.136939
 C  C85  1  0.82951610  0.80393979  0.30732033  1  -0.136770
 C  C86  1  0.33055973  0.80600343  0.19378781  1  -0.136781
 C  C87  1  0.67022188  0.19628205  0.80780235  1  -0.137546
 C  C88  1  0.05713590  0.07781360  0.05634297  1  -0.137136
 C  C89  1  0.94259229  0.92135075  0.94261886  1  -0.136495
 C  C90  1  0.44268765  0.92199467  0.55665523  1  -0.137918
 C  C91  1  0.55692986  0.07848229  0.44278256  1  -0.135864
 C  C92  1  0.32738716  0.19481229  0.80896696  1  -0.137216
 C  C93  1  0.67135728  0.80728536  0.19303908  1  -0.138144
 C  C94  1  0.17223035  0.80525791  0.30912155  1  -0.136835
 C  C95  1  0.82884190  0.19275952  0.69251189  1  -0.136726
 C  C96  1  0.94399310  0.58062785  0.94441656  1  -0.136545
 C  C97  1  0.05583084  0.42255039  0.05988625  1  -0.138869
 C  C98  1  0.55566534  0.41959414  0.44452744  1  -0.137638
 C  C99  1  0.44419081  0.57759376  0.55970000  1  -0.138032
 C  C100  1  0.66996393  0.69612671  0.19253912  1  -0.137558
 C  C101  1  0.32745550  0.30598654  0.80950217  1  -0.135553
 C  C102  1  0.83027561  0.30391241  0.69205683  1  -0.136371
 C  C103  1  0.17226481  0.69408873  0.30968306  1  -0.136865
 C  C104  1  0.55537081  0.57769504  0.55968656  1  -0.136474
 C  C105  1  0.44450240  0.41945217  0.44457790  1  -0.136253
 C  C106  1  0.94465893  0.42236320  0.05973229  1  -0.136580
 C  C107  1  0.05516208  0.58066722  0.94483748  1  -0.136017
 C  C108  1  0.82796749  0.69277055  0.30692153  1  -0.135844
 C  C109  1  0.16927107  0.30522872  0.69464118  1  -0.136181
 C  C110  1  0.67187400  0.30745161  0.80747511  1  -0.137313
 C  C111  1  0.33058404  0.69483150  0.19441541  1  -0.135625
 C  C112  1  0.44540637  0.05588258  0.31041900  1  -0.051143
 C  C113  1  0.55424706  0.94437349  0.68899577  1  -0.050256
 C  C114  1  0.05420347  0.94409720  0.81052418  1  -0.050873
 C  C115  1  0.94547173  0.05556689  0.18854800  1  -0.050364
 C  C116  1  0.19355222  0.19397387  0.56270569  1  -0.048233
 C  C117  1  0.80551648  0.80442159  0.43883250  1  -0.050115
 C  C118  1  0.30612750  0.80609480  0.06266159  1  -0.048132
 C  C119  1  0.69434801  0.19573698  0.93915485  1  -0.049708
 C  C120  1  0.05709122  0.05403666  0.18807632  1  -0.047185
 C  C121  1  0.94256091  0.94546200  0.81111602  1  -0.049651
 C  C122  1  0.44262935  0.94585404  0.68829526  1  -0.047293
 C  C123  1  0.55706264  0.05449735  0.31119435  1  -0.047630
 C  C124  1  0.30348783  0.19444089  0.94060124  1  -0.048194
 C  C125  1  0.69540794  0.80733051  0.06149450  1  -0.047559
 C  C126  1  0.19618995  0.80563656  0.44067342  1  -0.049898
 C  C127  1  0.80451448  0.19276713  0.56123164  1  -0.048176
 C  C128  1  0.94388839  0.55614973  0.81332536  1  -0.049600
 C  C129  1  0.05596720  0.44649850  0.19145603  1  -0.049030
 C  C130  1  0.55588862  0.44401558  0.31334676  1  -0.050308
 C  C131  1  0.44394876  0.55373899  0.69136855  1  -0.050400
 C  C132  1  0.69422862  0.69568769  0.06123901  1  -0.051627
 C  C133  1  0.30344659  0.30610605  0.94108101  1  -0.049982
 C  C134  1  0.80573888  0.30441245  0.56106170  1  -0.051720
 C  C135  1  0.19628196  0.69397596  0.44119980  1  -0.049810
 C  C136  1  0.55562690  0.55388251  0.69141221  1  -0.050789
 C  C137  1  0.44425637  0.44383044  0.31340880  1  -0.051153
 C  C138  1  0.94430607  0.44629151  0.19134254  1  -0.049202
 C  C139  1  0.05552009  0.55621890  0.81371112  1  -0.049358
 C  C140  1  0.80416045  0.69280569  0.43866108  1  -0.048841
 C  C141  1  0.19360447  0.30560949  0.56339841  1  -0.049997
 C  C142  1  0.69577819  0.30736096  0.93908337  1  -0.050343
 C  C143  1  0.30619953  0.69445932  0.06326442  1  -0.049435
 C  C144  1  0.38550942  0.04681245  0.23859668  1  0.639546
 C  C145  1  0.61405041  0.95314881  0.76138006  1  0.638908
 C  C146  1  0.11413754  0.95323681  0.73874271  1  0.639266
 C  C147  1  0.88567304  0.04688674  0.26108288  1  0.637017
 C  C148  1  0.20313689  0.13430693  0.49025615  1  0.637413
 C  C149  1  0.79673583  0.86423714  0.51114549  1  0.637304
 C  C150  1  0.29648046  0.86576326  0.99024893  1  0.637883
 C  C151  1  0.70307862  0.13588192  0.01138532  1  0.637234
 C  C152  1  0.11650228  0.04479615  0.26168022  1  0.632585
 C  C153  1  0.88300483  0.95502934  0.73813655  1  0.633194
 C  C154  1  0.38314445  0.95518934  0.76167173  1  0.633433
 C  C155  1  0.61668292  0.04495775  0.23832462  1  0.633309
 C  C156  1  0.29496577  0.13469956  0.01359359  1  0.632239
 C  C157  1  0.70491380  0.86687880  0.98835924  1  0.631525
 C  C158  1  0.20470858  0.86537215  0.51364074  1  0.634909
 C  C159  1  0.79488114  0.13321219  0.48822491  1  0.633071
 C  C160  1  0.88422257  0.54656281  0.74096083  1  0.638322
 C  C161  1  0.11556585  0.45520638  0.26481143  1  0.634394
 C  C162  1  0.61563262  0.45364180  0.24118338  1  0.639515
 C  C163  1  0.38428783  0.54497365  0.76459016  1  0.634397
 C  C164  1  0.70336814  0.63577662  0.98952723  1  0.639828
 C  C165  1  0.29474471  0.36569072  0.01456387  1  0.633656
 C  C166  1  0.79653351  0.36437296  0.48953382  1  0.639828
 C  C167  1  0.20502778  0.63439518  0.51468145  1  0.633375
 C  C168  1  0.61532611  0.54536366  0.76454933  1  0.633732
 C  C169  1  0.38449605  0.45329529  0.24137208  1  0.639467
 C  C170  1  0.88458263  0.45480855  0.26445836  1  0.633065
 C  C171  1  0.11532413  0.54674061  0.74172571  1  0.638753
 C  C172  1  0.79488401  0.63339657  0.51237768  1  0.634934
 C  C173  1  0.20315822  0.36543632  0.49157852  1  0.638749
 C  C174  1  0.70505819  0.36677012  0.01274568  1  0.636386
 C  C175  1  0.29668670  0.63464631  0.99143590  1  0.640652
 C  C176  1  0.50121907  0.11589488  0.65245784  1  -0.413483
 C  C177  1  0.49818199  0.88480076  0.34667052  1  -0.413293
 C  C178  1  0.99815937  0.88374514  0.15227223  1  -0.412666
 C  C179  1  0.00183887  0.11484895  0.84608451  1  -0.411998
 C  C180  1  0.13286619  0.24942298  0.90478357  1  -0.413546
 C  C181  1  0.86485957  0.74812673  0.09645557  1  -0.413215
 C  C182  1  0.36704578  0.75059053  0.40443031  1  -0.413133
 C  C183  1  0.63459706  0.25222110  0.59733342  1  -0.413592
 C  C184  1  0.36430000  0.25053732  0.59921102  1  -0.412489
 C  C185  1  0.63390391  0.75176417  0.40293973  1  -0.410245
 C  C186  1  0.13538423  0.74948311  0.09943449  1  -0.413590
 C  C187  1  0.86673542  0.24824867  0.90200626  1  -0.413817
 C  C188  1  0.99936346  0.61728390  0.15485285  1  -0.412483
 C  C189  1  0.00038994  0.38569868  0.84970984  1  -0.413422
 C  C190  1  0.50001594  0.38295715  0.65485423  1  -0.413667
 C  C191  1  0.49979061  0.61421546  0.34944204  1  -0.412862
 C  C192  1  0.50116895  0.04184482  0.24565166  1  -0.095504
 C  C193  1  0.49852693  0.95851198  0.75373627  1  -0.095016
 C  C194  1  0.99849675  0.95817012  0.74571442  1  -0.094218
 C  C195  1  0.00113677  0.04143899  0.25342794  1  -0.094708
 C  C196  1  0.20716396  0.24987723  0.49810446  1  -0.096826
 C  C197  1  0.79147648  0.74875100  0.50387703  1  -0.095762
 C  C198  1  0.29254988  0.75019884  0.99807597  1  -0.098468
 C  C199  1  0.70848150  0.25138133  0.00417265  1  -0.094800
 C  C200  1  0.29012770  0.25020838  0.00598071  1  -0.093168
 C  C201  1  0.70817090  0.75139212  0.99620012  1  -0.094142
 C  C202  1  0.20957539  0.74987845  0.50604801  1  -0.091769
 C  C203  1  0.79163834  0.24872817  0.49613124  1  -0.094509
 C  C204  1  0.99977623  0.54255732  0.74863626  1  -0.095886
 C  C205  1  0.00008075  0.45972069  0.25652537  1  -0.093048
 C  C206  1  0.50006528  0.45751480  0.24843975  1  -0.095309
 C  C207  1  0.49978909  0.54054286  0.75657683  1  -0.090773
 C  C208  1  0.50135824  0.09068696  0.51084865  1  0.164393
 C  C209  1  0.49822380  0.90988556  0.48837868  1  0.166226
 C  C210  1  0.99810811  0.90907813  0.01073666  1  0.164534
 C  C211  1  0.00165843  0.08987622  0.98790701  1  0.164567
 C  C212  1  0.15785435  0.24956230  0.76295353  1  0.164531
 C  C213  1  0.83992741  0.74824934  0.23832463  1  0.163834
 C  C214  1  0.34196252  0.75049562  0.26272103  1  0.163486
 C  C215  1  0.65977638  0.25200596  0.73893946  1  0.165255
 C  C216  1  0.33875624  0.25046980  0.74056304  1  0.164825
 C  C217  1  0.65922356  0.75176911  0.26139208  1  0.166015
 C  C218  1  0.16089820  0.74960165  0.24076201  1  0.165913
 C  C219  1  0.84112432  0.24824457  0.76075972  1  0.166148
 C  C220  1  0.99951392  0.59209067  0.01322547  1  0.163368
 C  C221  1  0.00029403  0.41113890  0.99112934  1  0.166188
 C  C222  1  0.50009708  0.40811107  0.51318234  1  0.164866
 C  C223  1  0.49978712  0.58890756  0.49097357  1  0.166991
 H  H224  1  0.59817820  0.90972175  0.50972386  1  0.111261
 H  H225  1  0.40141253  0.09066158  0.48946125  1  0.111499
 H  H226  1  0.90167717  0.09009055  0.00903955  1  0.111137
 H  H227  1  0.09808044  0.90915783  0.98946272  1  0.111653
 H  H228  1  0.33742693  0.35038453  0.76137407  1  0.110408
 H  H229  1  0.65956849  0.65180420  0.24056833  1  0.111739
 H  H230  1  0.16231294  0.64968088  0.26162091  1  0.110555
 H  H231  1  0.84084106  0.34822117  0.73992417  1  0.111721
 H  H232  1  0.89813296  0.91215860  0.99126482  1  0.111629
 H  H233  1  0.10159595  0.08688039  0.00759436  1  0.110407
 H  H234  1  0.60134486  0.08759824  0.49157197  1  0.110870
 H  H235  1  0.39825896  0.91292057  0.50787060  1  0.110637
 H  H236  1  0.15938562  0.34957730  0.74305176  1  0.110899
 H  H237  1  0.83713046  0.64831892  0.25829352  1  0.110049
 H  H238  1  0.34052508  0.65048905  0.24281632  1  0.110878
 H  H239  1  0.66273176  0.35193354  0.75894935  1  0.110829
 H  H240  1  0.10023436  0.41269901  0.01162930  1  0.111834
 H  H241  1  0.89953684  0.59056868  0.99235255  1  0.110889
 H  H242  1  0.39983304  0.58741313  0.51130142  1  0.111194
 H  H243  1  0.60007328  0.40973956  0.49265412  1  0.110019
 H  H244  1  0.83994042  0.84823940  0.25920704  1  0.110820
 H  H245  1  0.15921106  0.14960312  0.74179901  1  0.110403
 H  H246  1  0.65967825  0.15201215  0.75973577  1  0.111300
 H  H247  1  0.34047775  0.85045724  0.24169171  1  0.110534
 H  H248  1  0.40009953  0.40946425  0.49271125  1  0.111222
 H  H249  1  0.59972355  0.58759147  0.51127065  1  0.111164
 H  H250  1  0.09951739  0.59064748  0.99308789  1  0.110516
 H  H251  1  0.90033178  0.41236595  0.01137347  1  0.111132
 H  H252  1  0.66214868  0.85172994  0.24164920  1  0.111341
 H  H253  1  0.33725001  0.15049783  0.76040344  1  0.111615
 H  H254  1  0.83821361  0.14828530  0.74085333  1  0.111055
 H  H255  1  0.16228036  0.84957224  0.26063493  1  0.111723
 H  H256  1  0.24899862  0.52806921  0.32840748  1  0.419986
 H  H257  1  0.25077645  0.47203278  0.82846959  1  0.419391
 H  H258  1  0.74528630  0.02642965  0.66053780  1  0.419445
 H  H259  1  0.24938055  0.02816529  0.82888652  1  0.419083
 H  H260  1  0.74962228  0.47286689  0.83001290  1  0.419745
 H  H261  1  0.75048261  0.52736611  0.32991447  1  0.420288
 H  H262  1  0.22257634  0.00054405  0.07913164  1  0.420891
 H  H263  1  0.72351944  0.99519970  0.41032397  1  0.419231
 H  H264  1  0.27709100  0.99957728  0.57926213  1  0.420070
 H  H265  1  0.77628154  0.00461027  0.91050723  1  0.419618
 H  H266  1  0.22187016  0.49916074  0.07844855  1  0.420533
 H  H267  1  0.27797217  0.50096126  0.57849619  1  0.420116
 H  H268  1  0.25008054  0.97189745  0.32845667  1  0.420319
 H  H269  1  0.75469250  0.97369908  0.16034699  1  0.420162
 H  H270  1  0.72180384  0.49969685  0.57956131  1  0.420061
 H  H271  1  0.77813347  0.50042539  0.07944386  1  0.419290
 H  H272  1  0.54232724  0.10085042  0.70897694  1  0.138502
 H  H273  1  0.45709698  0.90005166  0.29033220  1  0.137787
 H  H274  1  0.95654822  0.89795207  0.20814977  1  0.137766
 H  H275  1  0.04311431  0.09977780  0.79011130  1  0.137888
 H  H276  1  0.14794410  0.29064378  0.96089336  1  0.138089
 H  H277  1  0.85043583  0.70648083  0.04105390  1  0.138034
 H  H278  1  0.35167719  0.70955197  0.46086114  1  0.137624
 H  H279  1  0.64922354  0.29372919  0.54163500  1  0.137855
 H  H280  1  0.96078362  0.09954221  0.78969437  1  0.137630
 H  H281  1  0.03885863  0.89969776  0.20903448  1  0.137885
 H  H282  1  0.53943478  0.89982554  0.29051760  1  0.137615
 H  H283  1  0.45998823  0.10069063  0.70847019  1  0.138035
 H  H284  1  0.34996606  0.29207361  0.54328159  1  0.138425
 H  H285  1  0.64847618  0.71024543  0.45867891  1  0.137147
 H  H286  1  0.15030514  0.70825302  0.04314005  1  0.138088
 H  H287  1  0.85172474  0.28945253  0.95830122  1  0.137963
 H  H288  1  0.04120322  0.60337347  0.21018697  1  0.137232
 H  H289  1  0.95908194  0.40039907  0.79344446  1  0.138307
 H  H290  1  0.45996929  0.39995201  0.71246523  1  0.138611
 H  H291  1  0.54135800  0.59984788  0.29360695  1  0.137913
 H  H292  1  0.64948216  0.79256464  0.45985214  1  0.137223
 H  H293  1  0.34881025  0.20973345  0.54218965  1  0.137886
 H  H294  1  0.85181304  0.20711673  0.95866199  1  0.138361
 H  H295  1  0.15036489  0.79059613  0.04277268  1  0.138411
 H  H296  1  0.45902066  0.59852307  0.29257762  1  0.137911
 H  H297  1  0.54221338  0.39625136  0.70959877  1  0.137174
 H  H298  1  0.04142873  0.40096082  0.79312820  1  0.138382
 H  H299  1  0.95890807  0.60090150  0.21195628  1  0.138115
 H  H300  1  0.84885455  0.78878228  0.03957852  1  0.138288
 H  H301  1  0.14827617  0.20831649  0.96088321  1  0.137981
 H  H302  1  0.65016464  0.21140466  0.54043568  1  0.137871
 H  H303  1  0.35202271  0.79188169  0.46038661  1  0.138165
 H  H304  1  0.77252029  0.74888379  0.60565112  1  0.129287
 H  H305  1  0.91593539  0.74919658  0.09663218  1  0.123757
 H  H306  1  0.58281633  0.75235218  0.40212339  1  0.123301
 H  H307  1  0.41813483  0.75038007  0.40406041  1  0.123588
 H  H308  1  0.08429448  0.74950474  0.10089106  1  0.124232
 H  H309  1  0.22844222  0.75000169  0.60787090  1  0.128103
 H  H310  1  0.49807112  0.83371419  0.34723228  1  0.124050
 H  H311  1  0.49894853  0.66529610  0.35050805  1  0.123794
 H  H312  1  0.72724745  0.75131256  0.89452610  1  0.128913
 H  H313  1  0.27309119  0.75005334  0.89676925  1  0.129055
 H  H314  1  0.27124398  0.25008517  0.10782584  1  0.128523
 H  H315  1  0.72751584  0.25121292  0.10584048  1  0.128733
 H  H316  1  0.50107907  0.16698514  0.65174455  1  0.123857
 H  H317  1  0.49764729  0.33192735  0.65445116  1  0.124302
 H  H318  1  0.50117929  0.02278048  0.14398802  1  0.128562
 H  H319  1  0.49854849  0.97754354  0.85542499  1  0.128892
 H  H320  1  0.49978122  0.52174218  0.85848710  1  0.127786
 H  H321  1  0.50003752  0.47692323  0.14705679  1  0.128136
 H  H322  1  0.00099286  0.02249813  0.35520517  1  0.128852
 H  H323  1  0.99999970  0.47855571  0.35839890  1  0.128566
 H  H324  1  0.99855278  0.97727565  0.64408210  1  0.128926
 H  H325  1  0.99988849  0.52312343  0.64729293  1  0.128051
 H  H326  1  0.41538583  0.24979085  0.60070221  1  0.123125
 H  H327  1  0.08177732  0.24920127  0.90473357  1  0.123575
 H  H328  1  0.91782684  0.24836399  0.90059282  1  0.123751
 H  H329  1  0.58351353  0.25158805  0.59812798  1  0.124497
 H  H330  1  0.77237511  0.24885079  0.39465856  1  0.128790
 H  H331  1  0.22655124  0.25003832  0.39669123  1  0.128011
 H  H332  1  0.00165129  0.16593387  0.84644527  1  0.123594
 H  H333  1  0.99931719  0.83266843  0.15147345  1  0.123808
 H  H334  1  0.99778097  0.66834659  0.15435493  1  0.123708
 H  H335  1  0.00074888  0.33461446  0.85101656  1  0.123757
 Al  Al336  1  0.32258349  0.00004681  0.00307711  1  1.631166
 Al  Al337  1  0.67727108  0.00167506  0.99509250  1  1.635276
 Al  Al338  1  0.17708702  0.00001812  0.50309114  1  1.633987
 Al  Al339  1  0.82252227  0.99843358  0.49495429  1  1.636551
 Al  Al340  1  0.25125611  0.07251920  0.25496033  1  1.633511
 Al  Al341  1  0.74822074  0.92737352  0.74497382  1  1.636908
 Al  Al342  1  0.24834682  0.92752476  0.75499215  1  1.634284
 Al  Al343  1  0.75144362  0.07267878  0.24517078  1  1.634270
 Al  Al344  1  0.82241591  0.49858343  0.50574799  1  1.633151
 Al  Al345  1  0.17734272  0.49968642  0.50558944  1  1.631687
 Al  Al346  1  0.67752053  0.50158403  0.00583602  1  1.634192
 Al  Al347  1  0.32247257  0.50040505  0.00543460  1  1.631520
 Al  Al348  1  0.75001086  0.57286213  0.75388947  1  1.634762
 Al  Al349  1  0.25025513  0.42746559  0.25547697  1  1.631640
 Al  Al350  1  0.74986906  0.42734628  0.25408655  1  1.632594
 Al  Al351  1  0.24956332  0.57262916  0.75545156  1  1.631724
