# generated using pymatgen
data_cau-21-pbdc
_symmetry_space_group_name_H-M   'P 1'
_cell_length_a   17.34545671
_cell_length_b   17.34545671
_cell_length_c   23.96269153
_cell_angle_alpha   90.00000000
_cell_angle_beta   90.00000000
_cell_angle_gamma   90.00000000
_symmetry_Int_Tables_number   1
_chemical_formula_structural   Al16 H144 C240 O96
_chemical_formula_sum   'O96 C240 H144 Al16'
_cell_volume   7209.53203442
_cell_formula_units_Z   6
loop_
 _symmetry_equiv_pos_site_id
 _symmetry_equiv_pos_as_xyz
  1  'x, y, z'
loop_
 _atom_site_type_symbol
 _atom_site_label
 _atom_site_symmetry_multiplicity
 _atom_site_fract_x
 _atom_site_fract_y
 _atom_site_fract_z
 _atom_site_occupancy
 _atom_site_charge
 O  O0  1  0.80024367  0.84805066  0.57685884  1  -0.576375
 O  O1  1  0.19975633  0.15194934  0.57685884  1  -0.576375
 O  O2  1  0.15194934  0.80024367  0.57685884  1  -0.576375
 O  O3  1  0.84805066  0.19975633  0.57685884  1  -0.576375
 O  O4  1  0.19975633  0.84805066  0.42314116  1  -0.576375
 O  O5  1  0.80024367  0.15194934  0.42314116  1  -0.576375
 O  O6  1  0.84805066  0.80024367  0.42314116  1  -0.576375
 O  O7  1  0.15194934  0.19975633  0.42314116  1  -0.576375
 O  O8  1  0.30024367  0.34805066  0.07685884  1  -0.576375
 O  O9  1  0.69975633  0.65194934  0.07685884  1  -0.576375
 O  O10  1  0.65194934  0.30024367  0.07685884  1  -0.576375
 O  O11  1  0.34805066  0.69975633  0.07685884  1  -0.576375
 O  O12  1  0.69975633  0.34805066  0.92314116  1  -0.576375
 O  O13  1  0.30024367  0.65194934  0.92314116  1  -0.576375
 O  O14  1  0.34805066  0.30024367  0.92314116  1  -0.576375
 O  O15  1  0.65194934  0.69975633  0.92314116  1  -0.576375
 O  O16  1  0.74499796  0.96645732  0.57609731  1  -0.597302
 O  O17  1  0.25500204  0.03354268  0.57609731  1  -0.597302
 O  O18  1  0.03354268  0.74499796  0.57609731  1  -0.597302
 O  O19  1  0.96645732  0.25500204  0.57609731  1  -0.597302
 O  O20  1  0.25500204  0.96645732  0.42390269  1  -0.597302
 O  O21  1  0.74499796  0.03354268  0.42390269  1  -0.597302
 O  O22  1  0.96645732  0.74499796  0.42390269  1  -0.597302
 O  O23  1  0.03354268  0.25500204  0.42390269  1  -0.597302
 O  O24  1  0.24499796  0.46645732  0.07609731  1  -0.597302
 O  O25  1  0.75500204  0.53354268  0.07609731  1  -0.597302
 O  O26  1  0.53354268  0.24499796  0.07609731  1  -0.597302
 O  O27  1  0.46645732  0.75500204  0.07609731  1  -0.597302
 O  O28  1  0.75500204  0.46645732  0.92390269  1  -0.597302
 O  O29  1  0.24499796  0.53354268  0.92390269  1  -0.597302
 O  O30  1  0.46645732  0.24499796  0.92390269  1  -0.597302
 O  O31  1  0.53354268  0.75500204  0.92390269  1  -0.597302
 O  O32  1  0.66467601  0.93156663  0.48052450  1  -0.599662
 O  O33  1  0.33532399  0.06843337  0.48052450  1  -0.599662
 O  O34  1  0.06843337  0.66467601  0.48052450  1  -0.599662
 O  O35  1  0.93156663  0.33532399  0.48052450  1  -0.599662
 O  O36  1  0.33532399  0.93156663  0.51947547  1  -0.599662
 O  O37  1  0.66467601  0.06843337  0.51947547  1  -0.599662
 O  O38  1  0.93156663  0.66467601  0.51947547  1  -0.599662
 O  O39  1  0.06843337  0.33532399  0.51947547  1  -0.599662
 O  O40  1  0.16467601  0.43156663  0.98052453  1  -0.599662
 O  O41  1  0.83532399  0.56843337  0.98052453  1  -0.599662
 O  O42  1  0.56843337  0.16467601  0.98052453  1  -0.599662
 O  O43  1  0.43156663  0.83532399  0.98052453  1  -0.599662
 O  O44  1  0.83532399  0.43156663  0.01947550  1  -0.599662
 O  O45  1  0.16467601  0.56843337  0.01947550  1  -0.599662
 O  O46  1  0.43156663  0.16467601  0.01947550  1  -0.599662
 O  O47  1  0.56843337  0.83532399  0.01947550  1  -0.599662
 O  O48  1  0.71709351  0.81190654  0.47747225  1  -0.574794
 O  O49  1  0.28290649  0.18809346  0.47747225  1  -0.574794
 O  O50  1  0.18809346  0.71709351  0.47747225  1  -0.574794
 O  O51  1  0.81190654  0.28290649  0.47747225  1  -0.574794
 O  O52  1  0.28290649  0.81190654  0.52252775  1  -0.574794
 O  O53  1  0.71709351  0.18809346  0.52252775  1  -0.574794
 O  O54  1  0.81190654  0.71709351  0.52252775  1  -0.574794
 O  O55  1  0.18809346  0.28290649  0.52252775  1  -0.574794
 O  O56  1  0.21709351  0.31190654  0.97747225  1  -0.574794
 O  O57  1  0.78290649  0.68809346  0.97747225  1  -0.574794
 O  O58  1  0.68809346  0.21709351  0.97747225  1  -0.574794
 O  O59  1  0.31190654  0.78290649  0.97747225  1  -0.574794
 O  O60  1  0.78290649  0.31190654  0.02252775  1  -0.574794
 O  O61  1  0.21709351  0.68809346  0.02252775  1  -0.574794
 O  O62  1  0.31190654  0.21709351  0.02252775  1  -0.574794
 O  O63  1  0.68809346  0.78290649  0.02252775  1  -0.574794
 O  O64  1  0.82181894  0.92691343  0.48275008  1  -0.996854
 O  O65  1  0.17818106  0.07308657  0.48275008  1  -0.996854
 O  O66  1  0.07308657  0.82181894  0.48275008  1  -0.996854
 O  O67  1  0.92691343  0.17818106  0.48275008  1  -0.996854
 O  O68  1  0.17818106  0.92691343  0.51724992  1  -0.996854
 O  O69  1  0.82181894  0.07308657  0.51724992  1  -0.996854
 O  O70  1  0.92691343  0.82181894  0.51724992  1  -0.996854
 O  O71  1  0.07308657  0.17818106  0.51724992  1  -0.996854
 O  O72  1  0.32181894  0.42691343  0.98275008  1  -0.996854
 O  O73  1  0.67818106  0.57308657  0.98275008  1  -0.996854
 O  O74  1  0.57308657  0.32181894  0.98275008  1  -0.996854
 O  O75  1  0.42691343  0.67818106  0.98275008  1  -0.996854
 O  O76  1  0.67818106  0.42691343  0.01724992  1  -0.996854
 O  O77  1  0.32181894  0.57308657  0.01724992  1  -0.996854
 O  O78  1  0.42691343  0.32181894  0.01724992  1  -0.996854
 O  O79  1  0.57308657  0.67818106  0.01724992  1  -0.996854
 O  O80  1  0.33784424  0.74934333  0.36494881  1  -0.380842
 O  O81  1  0.66215576  0.25065667  0.36494881  1  -0.380842
 O  O82  1  0.25065667  0.33784424  0.36494881  1  -0.380842
 O  O83  1  0.74934333  0.66215576  0.36494881  1  -0.380842
 O  O84  1  0.66215576  0.74934333  0.63505122  1  -0.380842
 O  O85  1  0.33784424  0.25065667  0.63505122  1  -0.380842
 O  O86  1  0.74934333  0.33784424  0.63505122  1  -0.380842
 O  O87  1  0.25065667  0.66215576  0.63505122  1  -0.380842
 O  O88  1  0.83784424  0.24934333  0.86494878  1  -0.380842
 O  O89  1  0.16215576  0.75065667  0.86494878  1  -0.380842
 O  O90  1  0.75065667  0.83784424  0.86494878  1  -0.380842
 O  O91  1  0.24934333  0.16215576  0.86494878  1  -0.380842
 O  O92  1  0.16215576  0.24934333  0.13505119  1  -0.380842
 O  O93  1  0.83784424  0.75065667  0.13505119  1  -0.380842
 O  O94  1  0.24934333  0.83784424  0.13505119  1  -0.380842
 O  O95  1  0.75065667  0.16215576  0.13505119  1  -0.380842
 C  C96  1  0.40040113  0.75632098  0.34083925  1  0.345260
 C  C97  1  0.59959884  0.24367902  0.34083925  1  0.345260
 C  C98  1  0.24367902  0.40040113  0.34083925  1  0.345260
 C  C99  1  0.75632098  0.59959884  0.34083925  1  0.345260
 C  C100  1  0.59959884  0.75632098  0.65916072  1  0.345260
 C  C101  1  0.40040113  0.24367902  0.65916072  1  0.345260
 C  C102  1  0.75632098  0.40040113  0.65916072  1  0.345260
 C  C103  1  0.24367902  0.59959884  0.65916072  1  0.345260
 C  C104  1  0.90040116  0.25632098  0.84083928  1  0.345260
 C  C105  1  0.09959887  0.74367902  0.84083928  1  0.345260
 C  C106  1  0.74367902  0.90040116  0.84083928  1  0.345260
 C  C107  1  0.25632098  0.09959887  0.84083928  1  0.345260
 C  C108  1  0.09959887  0.25632098  0.15916075  1  0.345260
 C  C109  1  0.90040116  0.74367902  0.15916075  1  0.345260
 C  C110  1  0.25632098  0.90040116  0.15916075  1  0.345260
 C  C111  1  0.74367902  0.09959887  0.15916075  1  0.345260
 C  C112  1  0.75669039  0.90683906  0.77949825  1  -0.012218
 C  C113  1  0.24330961  0.09316094  0.77949825  1  -0.012218
 C  C114  1  0.09316094  0.75669039  0.77949825  1  -0.012218
 C  C115  1  0.90683906  0.24330961  0.77949825  1  -0.012218
 C  C116  1  0.24330961  0.90683906  0.22050175  1  -0.012218
 C  C117  1  0.75669039  0.09316094  0.22050175  1  -0.012218
 C  C118  1  0.90683906  0.75669039  0.22050175  1  -0.012218
 C  C119  1  0.09316094  0.24330961  0.22050175  1  -0.012218
 C  C120  1  0.25669039  0.40683906  0.27949825  1  -0.012218
 C  C121  1  0.74330961  0.59316094  0.27949825  1  -0.012218
 C  C122  1  0.59316094  0.25669039  0.27949825  1  -0.012218
 C  C123  1  0.40683906  0.74330961  0.27949825  1  -0.012218
 C  C124  1  0.74330961  0.40683906  0.72050175  1  -0.012218
 C  C125  1  0.25669039  0.59316094  0.72050175  1  -0.012218
 C  C126  1  0.40683906  0.25669039  0.72050175  1  -0.012218
 C  C127  1  0.59316094  0.74330961  0.72050175  1  -0.012218
 C  C128  1  0.79261205  0.84525842  0.75159419  1  -0.090482
 C  C129  1  0.20738795  0.15474158  0.75159419  1  -0.090482
 C  C130  1  0.15474158  0.79261205  0.75159419  1  -0.090482
 C  C131  1  0.84525842  0.20738795  0.75159419  1  -0.090482
 C  C132  1  0.20738795  0.84525842  0.24840581  1  -0.090481
 C  C133  1  0.79261205  0.15474158  0.24840581  1  -0.090481
 C  C134  1  0.84525842  0.79261205  0.24840581  1  -0.090482
 C  C135  1  0.15474158  0.20738795  0.24840581  1  -0.090482
 C  C136  1  0.29261205  0.34525842  0.25159419  1  -0.090482
 C  C137  1  0.70738795  0.65474158  0.25159419  1  -0.090482
 C  C138  1  0.65474158  0.29261205  0.25159419  1  -0.090482
 C  C139  1  0.34525842  0.70738795  0.25159419  1  -0.090482
 C  C140  1  0.70738795  0.34525842  0.74840581  1  -0.090482
 C  C141  1  0.29261205  0.65474158  0.74840581  1  -0.090482
 C  C142  1  0.34525842  0.29261205  0.74840581  1  -0.090482
 C  C143  1  0.65474158  0.70738795  0.74840581  1  -0.090482
 C  C144  1  0.79812050  0.84523227  0.69377108  1  -0.082772
 C  C145  1  0.20187950  0.15476773  0.69377108  1  -0.082772
 C  C146  1  0.15476773  0.79812050  0.69377108  1  -0.082772
 C  C147  1  0.84523227  0.20187950  0.69377108  1  -0.082772
 C  C148  1  0.20187950  0.84523227  0.30622892  1  -0.082772
 C  C149  1  0.79812050  0.15476773  0.30622892  1  -0.082772
 C  C150  1  0.84523227  0.79812050  0.30622892  1  -0.082772
 C  C151  1  0.15476773  0.20187950  0.30622892  1  -0.082772
 C  C152  1  0.29812050  0.34523227  0.19377108  1  -0.082772
 C  C153  1  0.70187950  0.65476773  0.19377108  1  -0.082772
 C  C154  1  0.65476773  0.29812050  0.19377108  1  -0.082772
 C  C155  1  0.34523227  0.70187950  0.19377108  1  -0.082772
 C  C156  1  0.70187950  0.34523227  0.80622892  1  -0.082772
 C  C157  1  0.29812050  0.65476773  0.80622892  1  -0.082772
 C  C158  1  0.34523227  0.29812050  0.80622892  1  -0.082772
 C  C159  1  0.65476773  0.70187950  0.80622892  1  -0.082772
 C  C160  1  0.76770650  0.90698035  0.66296537  1  -0.031375
 C  C161  1  0.23229350  0.09301965  0.66296537  1  -0.031375
 C  C162  1  0.09301965  0.76770650  0.66296537  1  -0.031375
 C  C163  1  0.90698035  0.23229350  0.66296537  1  -0.031375
 C  C164  1  0.23229350  0.90698035  0.33703463  1  -0.031375
 C  C165  1  0.76770650  0.09301965  0.33703463  1  -0.031375
 C  C166  1  0.90698035  0.76770650  0.33703463  1  -0.031375
 C  C167  1  0.09301965  0.23229350  0.33703463  1  -0.031375
 C  C168  1  0.26770650  0.40698035  0.16296537  1  -0.031375
 C  C169  1  0.73229350  0.59301965  0.16296537  1  -0.031375
 C  C170  1  0.59301965  0.26770650  0.16296537  1  -0.031375
 C  C171  1  0.40698035  0.73229350  0.16296537  1  -0.031375
 C  C172  1  0.73229350  0.40698035  0.83703463  1  -0.031375
 C  C173  1  0.26770650  0.59301965  0.83703463  1  -0.031375
 C  C174  1  0.40698035  0.26770650  0.83703463  1  -0.031375
 C  C175  1  0.59301965  0.73229350  0.83703463  1  -0.031375
 C  C176  1  0.73308666  0.96923638  0.69058815  1  -0.092588
 C  C177  1  0.26691334  0.03076362  0.69058815  1  -0.092588
 C  C178  1  0.03076362  0.73308666  0.69058815  1  -0.092588
 C  C179  1  0.96923638  0.26691334  0.69058815  1  -0.092588
 C  C180  1  0.26691334  0.96923638  0.30941185  1  -0.092588
 C  C181  1  0.73308666  0.03076362  0.30941185  1  -0.092588
 C  C182  1  0.96923638  0.73308666  0.30941185  1  -0.092588
 C  C183  1  0.03076362  0.26691334  0.30941185  1  -0.092588
 C  C184  1  0.23308666  0.46923638  0.19058815  1  -0.092588
 C  C185  1  0.76691334  0.53076362  0.19058815  1  -0.092588
 C  C186  1  0.53076362  0.23308666  0.19058815  1  -0.092588
 C  C187  1  0.46923638  0.76691334  0.19058815  1  -0.092588
 C  C188  1  0.76691334  0.46923638  0.80941185  1  -0.092588
 C  C189  1  0.23308666  0.53076362  0.80941185  1  -0.092588
 C  C190  1  0.46923638  0.23308666  0.80941185  1  -0.092588
 C  C191  1  0.53076362  0.76691334  0.80941185  1  -0.092588
 C  C192  1  0.72764147  0.96920960  0.74851298  1  -0.105239
 C  C193  1  0.27235853  0.03079040  0.74851298  1  -0.105239
 C  C194  1  0.03079040  0.72764147  0.74851298  1  -0.105239
 C  C195  1  0.96920960  0.27235853  0.74851298  1  -0.105239
 C  C196  1  0.27235853  0.96920960  0.25148702  1  -0.105239
 C  C197  1  0.72764147  0.03079040  0.25148702  1  -0.105239
 C  C198  1  0.96920960  0.72764147  0.25148702  1  -0.105239
 C  C199  1  0.03079040  0.27235853  0.25148702  1  -0.105239
 C  C200  1  0.22764147  0.46920960  0.24851298  1  -0.105240
 C  C201  1  0.77235853  0.53079040  0.24851298  1  -0.105240
 C  C202  1  0.53079040  0.22764147  0.24851298  1  -0.105240
 C  C203  1  0.46920960  0.77235853  0.24851298  1  -0.105240
 C  C204  1  0.77235853  0.46920960  0.75148702  1  -0.105240
 C  C205  1  0.22764147  0.53079040  0.75148702  1  -0.105240
 C  C206  1  0.46920960  0.22764147  0.75148702  1  -0.105240
 C  C207  1  0.53079040  0.77235853  0.75148702  1  -0.105240
 C  C208  1  0.77124428  0.90671169  0.60068542  1  0.624622
 C  C209  1  0.22875572  0.09328831  0.60068542  1  0.624622
 C  C210  1  0.09328831  0.77124428  0.60068542  1  0.624622
 C  C211  1  0.90671169  0.22875572  0.60068542  1  0.624622
 C  C212  1  0.22875572  0.90671169  0.39931458  1  0.624622
 C  C213  1  0.77124428  0.09328831  0.39931458  1  0.624622
 C  C214  1  0.90671169  0.77124428  0.39931458  1  0.624622
 C  C215  1  0.09328831  0.22875572  0.39931458  1  0.624622
 C  C216  1  0.27124428  0.40671169  0.10068542  1  0.624622
 C  C217  1  0.72875572  0.59328831  0.10068542  1  0.624622
 C  C218  1  0.59328831  0.27124428  0.10068542  1  0.624622
 C  C219  1  0.40671169  0.72875572  0.10068542  1  0.624622
 C  C220  1  0.72875572  0.40671169  0.89931458  1  0.624622
 C  C221  1  0.27124428  0.59328831  0.89931458  1  0.624622
 C  C222  1  0.40671169  0.27124428  0.89931458  1  0.624622
 C  C223  1  0.59328831  0.72875572  0.89931458  1  0.624622
 C  C224  1  0.52891089  0.87733319  0.43253510  1  -0.084020
 C  C225  1  0.47108911  0.12266681  0.43253510  1  -0.084020
 C  C226  1  0.12266681  0.52891089  0.43253510  1  -0.084020
 C  C227  1  0.87733319  0.47108911  0.43253510  1  -0.084020
 C  C228  1  0.47108911  0.87733319  0.56746487  1  -0.084020
 C  C229  1  0.52891089  0.12266681  0.56746487  1  -0.084020
 C  C230  1  0.87733319  0.52891089  0.56746487  1  -0.084020
 C  C231  1  0.12266681  0.47108911  0.56746487  1  -0.084020
 C  C232  1  0.02891089  0.37733319  0.93253513  1  -0.084020
 C  C233  1  0.97108911  0.62266681  0.93253513  1  -0.084020
 C  C234  1  0.62266681  0.02891089  0.93253513  1  -0.084020
 C  C235  1  0.37733319  0.97108911  0.93253513  1  -0.084020
 C  C236  1  0.97108911  0.37733319  0.06746490  1  -0.084020
 C  C237  1  0.02891089  0.62266681  0.06746490  1  -0.084020
 C  C238  1  0.37733319  0.02891089  0.06746490  1  -0.084020
 C  C239  1  0.62266681  0.97108911  0.06746490  1  -0.084020
 C  C240  1  0.46497526  0.85112708  0.40323198  1  -0.105982
 C  C241  1  0.53502474  0.14887292  0.40323198  1  -0.105983
 C  C242  1  0.14887292  0.46497526  0.40323198  1  -0.105982
 C  C243  1  0.85112708  0.53502474  0.40323198  1  -0.105983
 C  C244  1  0.53502474  0.85112708  0.59676799  1  -0.105982
 C  C245  1  0.46497526  0.14887292  0.59676799  1  -0.105983
 C  C246  1  0.85112708  0.46497526  0.59676799  1  -0.105982
 C  C247  1  0.14887292  0.53502474  0.59676799  1  -0.105983
 C  C248  1  0.96497526  0.35112708  0.90323201  1  -0.105982
 C  C249  1  0.03502474  0.64887292  0.90323201  1  -0.105983
 C  C250  1  0.64887292  0.96497526  0.90323201  1  -0.105982
 C  C251  1  0.35112708  0.03502474  0.90323201  1  -0.105983
 C  C252  1  0.03502474  0.35112708  0.09676802  1  -0.105982
 C  C253  1  0.96497526  0.64887292  0.09676802  1  -0.105983
 C  C254  1  0.35112708  0.96497526  0.09676802  1  -0.105982
 C  C255  1  0.64887292  0.03502474  0.09676802  1  -0.105983
 C  C256  1  0.46974244  0.78230011  0.37267361  1  0.003926
 C  C257  1  0.53025756  0.21769989  0.37267361  1  0.003926
 C  C258  1  0.21769989  0.46974244  0.37267361  1  0.003926
 C  C259  1  0.78230011  0.53025756  0.37267361  1  0.003926
 C  C260  1  0.53025756  0.78230011  0.62732639  1  0.003926
 C  C261  1  0.46974244  0.21769989  0.62732639  1  0.003926
 C  C262  1  0.78230011  0.46974244  0.62732639  1  0.003926
 C  C263  1  0.21769989  0.53025756  0.62732639  1  0.003926
 C  C264  1  0.96974244  0.28230011  0.87267361  1  0.003926
 C  C265  1  0.03025756  0.71769989  0.87267361  1  0.003926
 C  C266  1  0.71769989  0.96974244  0.87267361  1  0.003926
 C  C267  1  0.28230011  0.03025756  0.87267361  1  0.003926
 C  C268  1  0.03025756  0.28230011  0.12732639  1  0.003926
 C  C269  1  0.96974244  0.71769989  0.12732639  1  0.003926
 C  C270  1  0.28230011  0.96974244  0.12732639  1  0.003926
 C  C271  1  0.71769989  0.03025756  0.12732639  1  0.003926
 C  C272  1  0.53788824  0.73871538  0.37342721  1  -0.122427
 C  C273  1  0.46211176  0.26128462  0.37342721  1  -0.122427
 C  C274  1  0.26128462  0.53788824  0.37342721  1  -0.122426
 C  C275  1  0.73871538  0.46211176  0.37342721  1  -0.122426
 C  C276  1  0.46211176  0.73871538  0.62657279  1  -0.122426
 C  C277  1  0.53788824  0.26128462  0.62657279  1  -0.122426
 C  C278  1  0.73871538  0.53788824  0.62657279  1  -0.122426
 C  C279  1  0.26128462  0.46211176  0.62657279  1  -0.122426
 C  C280  1  0.03788824  0.23871538  0.87342721  1  -0.122427
 C  C281  1  0.96211176  0.76128462  0.87342721  1  -0.122427
 C  C282  1  0.76128462  0.03788824  0.87342721  1  -0.122426
 C  C283  1  0.23871538  0.96211176  0.87342721  1  -0.122426
 C  C284  1  0.96211176  0.23871538  0.12657279  1  -0.122426
 C  C285  1  0.03788824  0.76128462  0.12657279  1  -0.122426
 C  C286  1  0.23871538  0.03788824  0.12657279  1  -0.122426
 C  C287  1  0.76128462  0.96211176  0.12657279  1  -0.122426
 C  C288  1  0.60021019  0.76245093  0.40583622  1  -0.080170
 C  C289  1  0.39978981  0.23754907  0.40583622  1  -0.080170
 C  C290  1  0.23754907  0.60021019  0.40583622  1  -0.080170
 C  C291  1  0.76245093  0.39978981  0.40583622  1  -0.080170
 C  C292  1  0.39978981  0.76245093  0.59416381  1  -0.080170
 C  C293  1  0.60021019  0.23754907  0.59416381  1  -0.080170
 C  C294  1  0.76245093  0.60021019  0.59416381  1  -0.080170
 C  C295  1  0.23754907  0.39978981  0.59416381  1  -0.080170
 C  C296  1  0.10021019  0.26245093  0.90583619  1  -0.080170
 C  C297  1  0.89978981  0.73754907  0.90583619  1  -0.080170
 C  C298  1  0.73754907  0.10021019  0.90583619  1  -0.080170
 C  C299  1  0.26245093  0.89978981  0.90583619  1  -0.080170
 C  C300  1  0.89978981  0.26245093  0.09416378  1  -0.080170
 C  C301  1  0.10021019  0.73754907  0.09416378  1  -0.080170
 C  C302  1  0.26245093  0.10021019  0.09416378  1  -0.080170
 C  C303  1  0.73754907  0.89978981  0.09416378  1  -0.080170
 C  C304  1  0.59619277  0.83259694  0.43473406  1  -0.041784
 C  C305  1  0.40380723  0.16740306  0.43473406  1  -0.041784
 C  C306  1  0.16740306  0.59619277  0.43473406  1  -0.041784
 C  C307  1  0.83259694  0.40380723  0.43473406  1  -0.041784
 C  C308  1  0.40380723  0.83259694  0.56526594  1  -0.041784
 C  C309  1  0.59619277  0.16740306  0.56526594  1  -0.041784
 C  C310  1  0.83259694  0.59619277  0.56526594  1  -0.041784
 C  C311  1  0.16740306  0.40380723  0.56526594  1  -0.041784
 C  C312  1  0.09619277  0.33259694  0.93473406  1  -0.041784
 C  C313  1  0.90380723  0.66740306  0.93473406  1  -0.041784
 C  C314  1  0.66740306  0.09619277  0.93473406  1  -0.041784
 C  C315  1  0.33259694  0.90380723  0.93473406  1  -0.041784
 C  C316  1  0.90380723  0.33259694  0.06526594  1  -0.041784
 C  C317  1  0.09619277  0.66740306  0.06526594  1  -0.041784
 C  C318  1  0.33259694  0.09619277  0.06526594  1  -0.041784
 C  C319  1  0.66740306  0.90380723  0.06526594  1  -0.041784
 C  C320  1  0.66439210  0.86053835  0.46668579  1  0.639418
 C  C321  1  0.33560790  0.13946165  0.46668579  1  0.639418
 C  C322  1  0.13946165  0.66439210  0.46668579  1  0.639418
 C  C323  1  0.86053835  0.33560790  0.46668579  1  0.639418
 C  C324  1  0.33560790  0.86053835  0.53331424  1  0.639418
 C  C325  1  0.66439210  0.13946165  0.53331424  1  0.639418
 C  C326  1  0.86053835  0.66439210  0.53331424  1  0.639418
 C  C327  1  0.13946165  0.33560790  0.53331424  1  0.639418
 C  C328  1  0.16439210  0.36053835  0.96668576  1  0.639418
 C  C329  1  0.83560790  0.63946165  0.96668576  1  0.639418
 C  C330  1  0.63946165  0.16439210  0.96668576  1  0.639418
 C  C331  1  0.36053835  0.83560790  0.96668576  1  0.639418
 C  C332  1  0.83560790  0.36053835  0.03331421  1  0.639418
 C  C333  1  0.16439210  0.63946165  0.03331421  1  0.639418
 C  C334  1  0.36053835  0.16439210  0.03331421  1  0.639418
 C  C335  1  0.63946165  0.83560790  0.03331421  1  0.639418
 H  H336  1  0.81439421  0.79726877  0.77639483  1  0.105222
 H  H337  1  0.18560579  0.20273123  0.77639483  1  0.105222
 H  H338  1  0.20273123  0.81439421  0.77639483  1  0.105222
 H  H339  1  0.79726877  0.18560579  0.77639483  1  0.105222
 H  H340  1  0.18560579  0.79726877  0.22360517  1  0.105222
 H  H341  1  0.81439421  0.20273123  0.22360517  1  0.105222
 H  H342  1  0.79726877  0.81439421  0.22360517  1  0.105222
 H  H343  1  0.20273123  0.18560579  0.22360517  1  0.105222
 H  H344  1  0.31439421  0.29726877  0.27639483  1  0.105222
 H  H345  1  0.68560579  0.70273123  0.27639483  1  0.105222
 H  H346  1  0.70273123  0.31439421  0.27639483  1  0.105222
 H  H347  1  0.29726877  0.68560579  0.27639483  1  0.105222
 H  H348  1  0.68560579  0.29726877  0.72360517  1  0.105222
 H  H349  1  0.31439421  0.70273123  0.72360517  1  0.105222
 H  H350  1  0.29726877  0.31439421  0.72360517  1  0.105222
 H  H351  1  0.70273123  0.68560579  0.72360517  1  0.105222
 H  H352  1  0.82430341  0.79728040  0.67135244  1  0.116053
 H  H353  1  0.17569659  0.20271960  0.67135244  1  0.116053
 H  H354  1  0.20271960  0.82430341  0.67135244  1  0.116053
 H  H355  1  0.79728040  0.17569659  0.67135244  1  0.116053
 H  H356  1  0.17569659  0.79728040  0.32864756  1  0.116053
 H  H357  1  0.82430341  0.20271960  0.32864756  1  0.116053
 H  H358  1  0.79728040  0.82430341  0.32864756  1  0.116053
 H  H359  1  0.20271960  0.17569659  0.32864756  1  0.116053
 H  H360  1  0.32430341  0.29728040  0.17135244  1  0.116053
 H  H361  1  0.67569659  0.70271960  0.17135244  1  0.116053
 H  H362  1  0.70271960  0.32430341  0.17135244  1  0.116053
 H  H363  1  0.29728040  0.67569659  0.17135244  1  0.116053
 H  H364  1  0.67569659  0.29728040  0.82864756  1  0.116053
 H  H365  1  0.32430341  0.70271960  0.82864756  1  0.116053
 H  H366  1  0.29728040  0.32430341  0.82864756  1  0.116053
 H  H367  1  0.70271960  0.67569659  0.82864756  1  0.116053
 H  H368  1  0.70980030  0.01659373  0.66591296  1  0.116976
 H  H369  1  0.29019970  0.98340627  0.66591296  1  0.116976
 H  H370  1  0.98340627  0.70980030  0.66591296  1  0.116976
 H  H371  1  0.01659373  0.29019970  0.66591296  1  0.116976
 H  H372  1  0.29019970  0.01659373  0.33408704  1  0.116976
 H  H373  1  0.70980030  0.98340627  0.33408704  1  0.116976
 H  H374  1  0.01659373  0.70980030  0.33408704  1  0.116976
 H  H375  1  0.98340627  0.29019970  0.33408704  1  0.116976
 H  H376  1  0.20980030  0.51659373  0.16591296  1  0.116976
 H  H377  1  0.79019970  0.48340627  0.16591296  1  0.116976
 H  H378  1  0.48340627  0.20980030  0.16591296  1  0.116976
 H  H379  1  0.51659373  0.79019970  0.16591296  1  0.116976
 H  H380  1  0.79019970  0.51659373  0.83408704  1  0.116976
 H  H381  1  0.20980030  0.48340627  0.83408704  1  0.116976
 H  H382  1  0.51659373  0.20980030  0.83408704  1  0.116976
 H  H383  1  0.48340627  0.79019970  0.83408704  1  0.116976
 H  H384  1  0.69929316  0.01677442  0.77002404  1  0.102240
 H  H385  1  0.30070684  0.98322558  0.77002404  1  0.102240
 H  H386  1  0.98322558  0.69929316  0.77002404  1  0.102240
 H  H387  1  0.01677442  0.30070684  0.77002404  1  0.102240
 H  H388  1  0.30070684  0.01677442  0.22997596  1  0.102240
 H  H389  1  0.69929316  0.98322558  0.22997596  1  0.102240
 H  H390  1  0.01677442  0.69929316  0.22997596  1  0.102240
 H  H391  1  0.98322558  0.30070684  0.22997596  1  0.102240
 H  H392  1  0.19929316  0.51677442  0.27002404  1  0.102238
 H  H393  1  0.80070684  0.48322558  0.27002404  1  0.102238
 H  H394  1  0.48322558  0.19929316  0.27002404  1  0.102238
 H  H395  1  0.51677442  0.80070684  0.27002404  1  0.102238
 H  H396  1  0.80070684  0.51677442  0.72997596  1  0.102238
 H  H397  1  0.19929316  0.48322558  0.72997596  1  0.102238
 H  H398  1  0.51677442  0.19929316  0.72997596  1  0.102238
 H  H399  1  0.48322558  0.80070684  0.72997596  1  0.102238
 H  H400  1  0.52756688  0.93226642  0.45447447  1  0.108904
 H  H401  1  0.47243312  0.06773358  0.45447447  1  0.108905
 H  H402  1  0.06773358  0.52756688  0.45447447  1  0.108904
 H  H403  1  0.93226642  0.47243312  0.45447447  1  0.108905
 H  H404  1  0.47243312  0.93226642  0.54552550  1  0.108905
 H  H405  1  0.52756688  0.06773358  0.54552550  1  0.108906
 H  H406  1  0.93226642  0.52756688  0.54552550  1  0.108905
 H  H407  1  0.06773358  0.47243312  0.54552550  1  0.108906
 H  H408  1  0.02756688  0.43226642  0.95447450  1  0.108904
 H  H409  1  0.97243312  0.56773358  0.95447450  1  0.108905
 H  H410  1  0.56773358  0.02756688  0.95447450  1  0.108904
 H  H411  1  0.43226642  0.97243312  0.95447450  1  0.108905
 H  H412  1  0.97243312  0.43226642  0.04552553  1  0.108905
 H  H413  1  0.02756688  0.56773358  0.04552553  1  0.108906
 H  H414  1  0.43226642  0.02756688  0.04552553  1  0.108905
 H  H415  1  0.56773358  0.97243312  0.04552553  1  0.108906
 H  H416  1  0.41153368  0.88424578  0.40290803  1  0.114996
 H  H417  1  0.58846632  0.11575422  0.40290803  1  0.114996
 H  H418  1  0.11575422  0.41153368  0.40290803  1  0.114996
 H  H419  1  0.88424578  0.58846632  0.40290803  1  0.114996
 H  H420  1  0.58846632  0.88424578  0.59709197  1  0.114996
 H  H421  1  0.41153368  0.11575422  0.59709197  1  0.114996
 H  H422  1  0.88424578  0.41153368  0.59709197  1  0.114996
 H  H423  1  0.11575422  0.58846632  0.59709197  1  0.114996
 H  H424  1  0.91153368  0.38424578  0.90290803  1  0.114996
 H  H425  1  0.08846632  0.61575422  0.90290803  1  0.114996
 H  H426  1  0.61575422  0.91153368  0.90290803  1  0.114996
 H  H427  1  0.38424578  0.08846632  0.90290803  1  0.114996
 H  H428  1  0.08846632  0.38424578  0.09709197  1  0.114996
 H  H429  1  0.91153368  0.61575422  0.09709197  1  0.114996
 H  H430  1  0.38424578  0.91153368  0.09709197  1  0.114996
 H  H431  1  0.61575422  0.08846632  0.09709197  1  0.114996
 H  H432  1  0.54160999  0.68533772  0.34943732  1  0.101022
 H  H433  1  0.45839001  0.31466228  0.34943732  1  0.101022
 H  H434  1  0.31466228  0.54160999  0.34943732  1  0.101024
 H  H435  1  0.68533772  0.45839001  0.34943732  1  0.101024
 H  H436  1  0.45839001  0.68533772  0.65056271  1  0.101022
 H  H437  1  0.54160999  0.31466228  0.65056271  1  0.101022
 H  H438  1  0.68533772  0.54160999  0.65056271  1  0.101024
 H  H439  1  0.31466228  0.45839001  0.65056271  1  0.101024
 H  H440  1  0.04160999  0.18533772  0.84943729  1  0.101022
 H  H441  1  0.95839001  0.81466228  0.84943729  1  0.101022
 H  H442  1  0.81466228  0.04160999  0.84943729  1  0.101024
 H  H443  1  0.18533772  0.95839001  0.84943729  1  0.101024
 H  H444  1  0.95839001  0.18533772  0.15056268  1  0.101022
 H  H445  1  0.04160999  0.81466228  0.15056268  1  0.101022
 H  H446  1  0.18533772  0.04160999  0.15056268  1  0.101024
 H  H447  1  0.81466228  0.95839001  0.15056268  1  0.101024
 H  H448  1  0.65292327  0.72836008  0.40796008  1  0.127808
 H  H449  1  0.34707673  0.27163992  0.40796008  1  0.127808
 H  H450  1  0.27163992  0.65292327  0.40796008  1  0.127808
 H  H451  1  0.72836008  0.34707673  0.40796008  1  0.127808
 H  H452  1  0.34707673  0.72836008  0.59203992  1  0.127808
 H  H453  1  0.65292327  0.27163992  0.59203992  1  0.127808
 H  H454  1  0.72836008  0.65292327  0.59203992  1  0.127808
 H  H455  1  0.27163992  0.34707673  0.59203992  1  0.127808
 H  H456  1  0.15292327  0.22836008  0.90796008  1  0.127808
 H  H457  1  0.84707673  0.77163992  0.90796008  1  0.127808
 H  H458  1  0.77163992  0.15292327  0.90796008  1  0.127808
 H  H459  1  0.22836008  0.84707673  0.90796008  1  0.127808
 H  H460  1  0.84707673  0.22836008  0.09203992  1  0.127808
 H  H461  1  0.15292327  0.77163992  0.09203992  1  0.127808
 H  H462  1  0.22836008  0.15292327  0.09203992  1  0.127808
 H  H463  1  0.77163992  0.84707673  0.09203992  1  0.127808
 H  H464  1  0.56034983  0.35181954  0.94997456  1  0.422501
 H  H465  1  0.43965017  0.64818043  0.94997456  1  0.422501
 H  H466  1  0.64818043  0.56034983  0.94997456  1  0.422501
 H  H467  1  0.35181954  0.43965017  0.94997456  1  0.422501
 H  H468  1  0.43965017  0.35181954  0.05002544  1  0.422501
 H  H469  1  0.56034983  0.64818043  0.05002544  1  0.422501
 H  H470  1  0.35181954  0.56034983  0.05002544  1  0.422501
 H  H471  1  0.64818043  0.43965017  0.05002544  1  0.422501
 H  H472  1  0.06034983  0.85181957  0.44997456  1  0.422501
 H  H473  1  0.93965017  0.14818046  0.44997456  1  0.422501
 H  H474  1  0.14818046  0.06034983  0.44997456  1  0.422501
 H  H475  1  0.85181957  0.93965017  0.44997456  1  0.422501
 H  H476  1  0.93965017  0.85181957  0.55002544  1  0.422501
 H  H477  1  0.06034983  0.14818046  0.55002544  1  0.422501
 H  H478  1  0.85181957  0.06034983  0.55002544  1  0.422501
 H  H479  1  0.14818046  0.93965017  0.55002544  1  0.422501
 Al  Al480  1  0.82150915  0.82150915  0.50000000  1  1.643897
 Al  Al481  1  0.17849085  0.17849085  0.50000000  1  1.643897
 Al  Al482  1  0.17849085  0.82150915  0.50000000  1  1.643897
 Al  Al483  1  0.82150915  0.17849085  0.50000000  1  1.643897
 Al  Al484  1  0.32150915  0.32150915  0.00000000  1  1.643897
 Al  Al485  1  0.67849085  0.67849085  0.00000000  1  1.643897
 Al  Al486  1  0.67849085  0.32150915  0.00000000  1  1.643897
 Al  Al487  1  0.32150915  0.67849085  0.00000000  1  1.643897
 Al  Al488  1  0.74570346  0.00000000  0.50000000  1  1.647977
 Al  Al489  1  0.25429654  0.00000000  0.50000000  1  1.647977
 Al  Al490  1  0.00000000  0.74570346  0.50000000  1  1.647977
 Al  Al491  1  0.00000000  0.25429654  0.50000000  1  1.647977
 Al  Al492  1  0.24570346  0.50000000  0.00000000  1  1.647977
 Al  Al493  1  0.75429654  0.50000000  0.00000000  1  1.647977
 Al  Al494  1  0.50000000  0.24570346  0.00000000  1  1.647977
 Al  Al495  1  0.50000000  0.75429654  0.00000000  1  1.647977
