# generated using pymatgen
data_cau-11
_symmetry_space_group_name_H-M   'P 1'
_cell_length_a   6.64308843
_cell_length_b   12.94525758
_cell_length_c   19.92076912
_cell_angle_alpha   89.99064346
_cell_angle_beta   90.01645485
_cell_angle_gamma   90.03484830
_symmetry_Int_Tables_number   1
_chemical_formula_structural   Al4 H36 C56 S4 O28
_chemical_formula_sum   'Al4 O28 S4 C56 H36'
_cell_volume   1713.11582867
_cell_formula_units_Z   6
loop_
 _symmetry_equiv_pos_site_id
 _symmetry_equiv_pos_as_xyz
  1  'x, y, z'
loop_
 _atom_site_type_symbol
 _atom_site_label
 _atom_site_symmetry_multiplicity
 _atom_site_fract_x
 _atom_site_fract_y
 _atom_site_fract_z
 _atom_site_occupancy
 _atom_site_charge
 Al  Al0  1  0.07086910  0.74969592  0.24735554  1  1.655461
 Al  Al1  1  0.92466308  0.24941642  0.75304478  1  1.651433
 Al  Al2  1  0.42476675  0.24942290  0.74728853  1  1.651206
 Al  Al3  1  0.57102456  0.74979356  0.25308409  1  1.653959
 O  O4  1  0.81800625  0.74988016  0.21037989  1  -1.017691
 O  O5  1  0.17777462  0.24971008  0.78998352  1  -1.015801
 O  O6  1  0.67762938  0.24950335  0.71024367  1  -1.014846
 O  O7  1  0.31807256  0.74971891  0.29001519  1  -1.015065
 O  O8  1  0.21485745  0.24994146  0.93248804  1  -0.499528
 O  O9  1  0.78339600  0.74977578  0.06760574  1  -0.497087
 O  O10  1  0.28284611  0.74973334  0.43290004  1  -0.501005
 O  O11  1  0.71449432  0.24985715  0.56783154  1  -0.500206
 O  O12  1  0.59236771  0.25014504  0.95057563  1  -0.504646
 O  O13  1  0.40581495  0.74928656  0.05010509  1  -0.501000
 O  O14  1  0.90546294  0.74933488  0.45065350  1  -0.503627
 O  O15  1  0.09201148  0.24940404  0.54997793  1  -0.505030
 O  O16  1  0.50339479  0.14281245  0.80941307  1  -0.588120
 O  O17  1  0.49267724  0.85710239  0.19142215  1  -0.587597
 O  O18  1  0.99269190  0.85667731  0.30927727  1  -0.587712
 O  O19  1  0.00275540  0.14217369  0.69139667  1  -0.587230
 O  O20  1  0.49201589  0.64245315  0.19152382  1  -0.590217
 O  O21  1  0.50287120  0.35722572  0.80864610  1  -0.587910
 O  O22  1  0.00292221  0.35668497  0.69152426  1  -0.588188
 O  O23  1  0.99248948  0.64222876  0.30901110  1  -0.588864
 O  O24  1  0.84440610  0.14359963  0.81626818  1  -0.572047
 O  O25  1  0.15171550  0.85562397  0.18424539  1  -0.572486
 O  O26  1  0.65179061  0.85522861  0.31639476  1  -0.574627
 O  O27  1  0.34387505  0.14291488  0.68465002  1  -0.575786
 O  O28  1  0.15110432  0.64402339  0.18414970  1  -0.572933
 O  O29  1  0.84368840  0.35477693  0.81637600  1  -0.572241
 O  O30  1  0.34377747  0.35437851  0.68379432  1  -0.572948
 O  O31  1  0.65160254  0.64386840  0.31634212  1  -0.572793
 S  S32  1  0.38885842  0.24996197  0.97681154  1  0.961467
 S  S33  1  0.60888379  0.74955445  0.02352530  1  0.954696
 S  S34  1  0.10867413  0.74933136  0.47714168  1  0.960267
 S  S35  1  0.88864707  0.24945158  0.52361569  1  0.964328
 C  C36  1  0.83213778  0.98499964  0.91246341  1  -0.076927
 C  C37  1  0.16395593  0.01535092  0.08859091  1  -0.079348
 C  C38  1  0.66418913  0.01351956  0.41297159  1  -0.077144
 C  C39  1  0.33211070  0.98356614  0.58926992  1  -0.072258
 C  C40  1  0.16352084  0.48454814  0.08833416  1  -0.079361
 C  C41  1  0.83230588  0.51449155  0.91199115  1  -0.078639
 C  C42  1  0.33217055  0.51386459  0.58822721  1  -0.081569
 C  C43  1  0.66372742  0.48349117  0.41155485  1  -0.080523
 C  C44  1  0.81858681  0.90247318  0.95717110  1  -0.101301
 C  C45  1  0.17774263  0.09771234  0.04373184  1  -0.101261
 C  C46  1  0.67782333  0.09601235  0.45772012  1  -0.103505
 C  C47  1  0.31877012  0.90124268  0.54441932  1  -0.102873
 C  C48  1  0.17746490  0.40217347  0.04351984  1  -0.102866
 C  C49  1  0.81891934  0.59690458  0.95680800  1  -0.100673
 C  C50  1  0.31883241  0.59637778  0.54349103  1  -0.097355
 C  C51  1  0.67759157  0.40108879  0.45636130  1  -0.098560
 C  C52  1  0.63056262  0.85727975  0.96864394  1  -0.080772
 C  C53  1  0.36614000  0.14232401  0.03186635  1  -0.078500
 C  C54  1  0.86571272  0.14165821  0.46881613  1  -0.077438
 C  C55  1  0.13054136  0.85661129  0.53239306  1  -0.081113
 C  C56  1  0.36581671  0.35743238  0.03195327  1  -0.077153
 C  C57  1  0.63094859  0.64196418  0.96845491  1  -0.077792
 C  C58  1  0.13093246  0.64164314  0.53206235  1  -0.078898
 C  C59  1  0.86617325  0.35693307  0.46845604  1  -0.081007
 C  C60  1  0.45646920  0.89344188  0.93707462  1  -0.091240
 C  C61  1  0.54009403  0.10582497  0.06338757  1  -0.091729
 C  C62  1  0.03947691  0.10593300  0.43685423  1  -0.095333
 C  C63  1  0.95618698  0.89288768  0.56373394  1  -0.091075
 C  C64  1  0.53958729  0.39372969  0.06373391  1  -0.091722
 C  C65  1  0.45684545  0.60572972  0.93684652  1  -0.093502
 C  C66  1  0.95691545  0.60569427  0.56382685  1  -0.089555
 C  C67  1  0.04027782  0.39393679  0.43727145  1  -0.091162
 C  C68  1  0.47170189  0.97599472  0.89277783  1  -0.079103
 C  C69  1  0.52452154  0.02347897  0.10783906  1  -0.076939
 C  C70  1  0.02411919  0.02346808  0.39252476  1  -0.078120
 C  C71  1  0.97123282  0.97523785  0.60818023  1  -0.079557
 C  C72  1  0.52386617  0.47606713  0.10815557  1  -0.076122
 C  C73  1  0.47189869  0.52335291  0.89242423  1  -0.078291
 C  C74  1  0.97191348  0.52321769  0.60816971  1  -0.081353
 C  C75  1  0.02460179  0.47633797  0.39286776  1  -0.079574
 C  C76  1  0.65928399  0.02140126  0.87987708  1  -0.019581
 C  C77  1  0.33673752  0.97846966  0.12096924  1  -0.020961
 C  C78  1  0.83671151  0.97764512  0.37997907  1  -0.018178
 C  C79  1  0.15889247  0.02032205  0.62141098  1  -0.020580
 C  C80  1  0.33612413  0.52121497  0.12097526  1  -0.019815
 C  C81  1  0.65937803  0.47802510  0.87942497  1  -0.019571
 C  C82  1  0.15930965  0.47763832  0.62091491  1  -0.019686
 C  C83  1  0.83663406  0.52087031  0.37947721  1  -0.017667
 C  C84  1  0.67067169  0.10974384  0.83136083  1  0.636067
 C  C85  1  0.32531122  0.88993124  0.16937869  1  0.636037
 C  C86  1  0.82539099  0.88938779  0.33140165  1  0.637903
 C  C87  1  0.17013403  0.10894273  0.66966312  1  0.638448
 C  C88  1  0.32467494  0.60968967  0.16937631  1  0.639030
 C  C89  1  0.67033013  0.38954398  0.83098428  1  0.636068
 C  C90  1  0.17033974  0.38908635  0.66923547  1  0.637214
 C  C91  1  0.82513772  0.60947270  0.33113074  1  0.637410
 H  H92  1  0.31218382  0.64133287  0.94797194  1  0.110325
 H  H93  1  0.33973285  0.49228150  0.86710022  1  0.122634
 H  H94  1  0.97560770  0.47666152  0.90188113  1  0.118073
 H  H95  1  0.95074208  0.62564513  0.98353170  1  0.112040
 H  H96  1  0.47531264  0.47576348  0.59820408  1  0.119283
 H  H97  1  0.45049651  0.62501227  0.51665608  1  0.111354
 H  H98  1  0.51995623  0.52064826  0.40107843  1  0.117565
 H  H99  1  0.54572123  0.37164135  0.48270962  1  0.111349
 H  H100  1  0.68439682  0.35820393  0.05275053  1  0.108156
 H  H101  1  0.04587967  0.37325522  0.01674295  1  0.112605
 H  H102  1  0.01998951  0.52219592  0.09839371  1  0.118043
 H  H103  1  0.65566163  0.50722781  0.13363925  1  0.122635
 H  H104  1  0.04590866  0.12675394  0.01718891  1  0.112566
 H  H105  1  0.02033928  0.97784028  0.09888292  1  0.117894
 H  H106  1  0.68497263  0.14120222  0.05217087  1  0.109057
 H  H107  1  0.65654020  0.99216523  0.13308224  1  0.123203
 H  H108  1  0.52102459  0.97521056  0.40322083  1  0.115974
 H  H109  1  0.54637256  0.12437684  0.48475743  1  0.113979
 H  H110  1  0.33962529  0.00712884  0.86747306  1  0.123031
 H  H111  1  0.31180766  0.85769906  0.94813708  1  0.110287
 H  H112  1  0.97547466  0.02291449  0.90241044  1  0.117396
 H  H113  1  0.95020349  0.87365094  0.98393083  1  0.112670
 H  H114  1  0.83902483  0.00649893  0.63330871  1  0.123650
 H  H115  1  0.81153831  0.85736783  0.55235576  1  0.110493
 H  H116  1  0.81238924  0.64158954  0.55288118  1  0.109896
 H  H117  1  0.83987260  0.49227644  0.63361388  1  0.123967
 H  H118  1  0.15594954  0.99274987  0.36690075  1  0.123846
 H  H119  1  0.18401661  0.14203850  0.44760697  1  0.110389
 H  H120  1  0.47548687  0.02120007  0.59973159  1  0.113988
 H  H121  1  0.45072957  0.87222128  0.51797276  1  0.113687
 H  H122  1  0.30954589  0.74983078  0.33900633  1  0.423649
 H  H123  1  0.80947516  0.74970760  0.16138534  1  0.425359
 H  H124  1  0.18648974  0.24959195  0.83897092  1  0.426096
 H  H125  1  0.68630315  0.24953279  0.66125717  1  0.425941
 H  H126  1  0.15668532  0.50812642  0.36790706  1  0.123420
 H  H127  1  0.18525701  0.35895305  0.44876556  1  0.108990
