# generated using pymatgen
data_ce-hifpbb
_symmetry_space_group_name_H-M   'P 1'
_cell_length_a   7.45460958
_cell_length_b   21.03810841
_cell_length_c   36.39221835
_cell_angle_alpha   90.00000000
_cell_angle_beta   90.00000000
_cell_angle_gamma   90.00000000
_symmetry_Int_Tables_number   1
_chemical_formula_structural   Ce8 H96 C204 O48 F72
_chemical_formula_sum   'Ce8 C204 O48 F72 H96'
_cell_volume   5707.42379177
_cell_formula_units_Z   6
loop_
 _symmetry_equiv_pos_site_id
 _symmetry_equiv_pos_as_xyz
  1  'x, y, z'
loop_
 _atom_site_type_symbol
 _atom_site_label
 _atom_site_symmetry_multiplicity
 _atom_site_fract_x
 _atom_site_fract_y
 _atom_site_fract_z
 _atom_site_occupancy
 _atom_site_charge
 Ce  Ce0  1  0.70675544  0.50077584  0.33645235  1  1.907399
 Ce  Ce1  1  0.29324459  0.49922416  0.66354762  1  1.907382
 Ce  Ce2  1  0.79324456  0.50077584  0.66354762  1  1.907377
 Ce  Ce3  1  0.20675541  0.49922416  0.33645235  1  1.907395
 Ce  Ce4  1  0.79324456  0.99922416  0.83645238  1  1.907358
 Ce  Ce5  1  0.20675541  0.00077584  0.16354765  1  1.907399
 Ce  Ce6  1  0.70675544  0.99922416  0.16354765  1  1.907371
 Ce  Ce7  1  0.29324459  0.00077584  0.83645238  1  1.907377
 C  C8  1  0.12231303  0.77836901  0.52278840  1  0.679065
 C  C9  1  0.87768696  0.22163099  0.47721160  1  0.679064
 C  C10  1  0.37768696  0.77836901  0.47721160  1  0.679064
 C  C11  1  0.62231304  0.22163099  0.52278840  1  0.679067
 C  C12  1  0.37768696  0.72163099  0.02278840  1  0.679064
 C  C13  1  0.62231304  0.27836901  0.97721160  1  0.679066
 C  C14  1  0.12231303  0.72163099  0.97721160  1  0.679065
 C  C15  1  0.87768696  0.27836901  0.02278840  1  0.679065
 C  C16  1  0.14985628  0.69270229  0.47225693  1  0.086947
 C  C17  1  0.85014375  0.30729771  0.52774307  1  0.086946
 C  C18  1  0.35014372  0.69270229  0.52774307  1  0.086945
 C  C19  1  0.64985625  0.30729771  0.47225693  1  0.086947
 C  C20  1  0.35014372  0.80729771  0.97225693  1  0.086945
 C  C21  1  0.64985625  0.19270229  0.02774307  1  0.086947
 C  C22  1  0.14985628  0.80729771  0.02774307  1  0.086947
 C  C23  1  0.85014375  0.19270229  0.97225693  1  0.086945
 C  C24  1  0.97497222  0.70538495  0.46032301  1  -0.144384
 C  C25  1  0.02502781  0.29461505  0.53967696  1  -0.144383
 C  C26  1  0.52502778  0.70538495  0.53967696  1  -0.144385
 C  C27  1  0.47497219  0.29461505  0.46032301  1  -0.144384
 C  C28  1  0.52502778  0.79461505  0.96032304  1  -0.144384
 C  C29  1  0.47497219  0.20538495  0.03967699  1  -0.144384
 C  C30  1  0.97497222  0.79461505  0.03967699  1  -0.144384
 C  C31  1  0.02502781  0.20538495  0.96032304  1  -0.144385
 C  C32  1  0.89171163  0.66537745  0.43516998  1  -0.068190
 C  C33  1  0.10828837  0.33462255  0.56483002  1  -0.068185
 C  C34  1  0.60828837  0.66537745  0.56483002  1  -0.068185
 C  C35  1  0.39171163  0.33462255  0.43516998  1  -0.068189
 C  C36  1  0.60828837  0.83462255  0.93516998  1  -0.068185
 C  C37  1  0.39171163  0.16537745  0.06483002  1  -0.068190
 C  C38  1  0.89171163  0.83462255  0.06483002  1  -0.068189
 C  C39  1  0.10828837  0.16537745  0.93516998  1  -0.068184
 C  C40  1  0.98156640  0.61172433  0.42175827  1  -0.039754
 C  C41  1  0.01843360  0.38827567  0.57824173  1  -0.039776
 C  C42  1  0.51843360  0.61172433  0.57824173  1  -0.039776
 C  C43  1  0.48156640  0.38827567  0.42175827  1  -0.039755
 C  C44  1  0.51843360  0.88827567  0.92175827  1  -0.039776
 C  C45  1  0.48156640  0.11172433  0.07824173  1  -0.039755
 C  C46  1  0.98156640  0.88827567  0.07824173  1  -0.039755
 C  C47  1  0.01843360  0.11172433  0.92175827  1  -0.039776
 C  C48  1  0.15705943  0.59896037  0.43348837  1  -0.064032
 C  C49  1  0.84294054  0.40103963  0.56651163  1  -0.064032
 C  C50  1  0.34294057  0.59896037  0.56651163  1  -0.064032
 C  C51  1  0.65705946  0.40103963  0.43348837  1  -0.064029
 C  C52  1  0.34294057  0.90103963  0.93348837  1  -0.064033
 C  C53  1  0.65705946  0.09896037  0.06651163  1  -0.064031
 C  C54  1  0.15705943  0.90103963  0.06651163  1  -0.064031
 C  C55  1  0.84294054  0.09896037  0.93348837  1  -0.064031
 C  C56  1  0.24040768  0.63927572  0.45831277  1  -0.127471
 C  C57  1  0.75959229  0.36072428  0.54168720  1  -0.127471
 C  C58  1  0.25959232  0.63927572  0.54168720  1  -0.127468
 C  C59  1  0.74040771  0.36072428  0.45831277  1  -0.127469
 C  C60  1  0.25959232  0.86072428  0.95831280  1  -0.127471
 C  C61  1  0.74040771  0.13927572  0.04168723  1  -0.127471
 C  C62  1  0.24040768  0.86072428  0.04168723  1  -0.127469
 C  C63  1  0.75959229  0.13927572  0.95831280  1  -0.127469
 C  C64  1  0.89050313  0.57125711  0.39456786  1  0.603039
 C  C65  1  0.10949684  0.42874289  0.60543214  1  0.603127
 C  C66  1  0.60949687  0.57125711  0.60543214  1  0.603126
 C  C67  1  0.39050316  0.42874289  0.39456786  1  0.603040
 C  C68  1  0.60949687  0.92874289  0.89456786  1  0.603125
 C  C69  1  0.39050316  0.07125711  0.10543214  1  0.603040
 C  C70  1  0.89050313  0.92874289  0.10543214  1  0.603040
 C  C71  1  0.10949684  0.07125711  0.89456786  1  0.603125
 C  C72  1  0.21910053  0.13216706  0.36717645  1  -0.277106
 C  C73  1  0.78089946  0.86783296  0.63282358  1  -0.277110
 C  C74  1  0.28089946  0.13216706  0.63282358  1  -0.277112
 C  C75  1  0.71910054  0.86783296  0.36717645  1  -0.277104
 C  C76  1  0.28089946  0.36783296  0.86717642  1  -0.277111
 C  C77  1  0.71910054  0.63216704  0.13282355  1  -0.277104
 C  C78  1  0.21910053  0.36783296  0.13282355  1  -0.277105
 C  C79  1  0.78089946  0.63216704  0.86717642  1  -0.277110
 C  C80  1  0.08668171  0.07841064  0.37906422  1  0.682627
 C  C81  1  0.91331829  0.92158933  0.62093581  1  0.682635
 C  C82  1  0.41331829  0.07841064  0.62093581  1  0.682629
 C  C83  1  0.58668171  0.92158933  0.37906422  1  0.682633
 C  C84  1  0.41331829  0.42158936  0.87906419  1  0.682629
 C  C85  1  0.58668171  0.57841067  0.12093578  1  0.682633
 C  C86  1  0.08668171  0.42158936  0.12093578  1  0.682626
 C  C87  1  0.91331829  0.57841067  0.87906419  1  0.682635
 C  C88  1  0.12632578  0.19635243  0.36049178  1  0.091831
 C  C89  1  0.87367425  0.80364757  0.63950819  1  0.091830
 C  C90  1  0.37367422  0.19635243  0.63950819  1  0.091831
 C  C91  1  0.62632575  0.80364757  0.36049178  1  0.091831
 C  C92  1  0.37367422  0.30364757  0.86049181  1  0.091830
 C  C93  1  0.62632575  0.69635243  0.13950822  1  0.091831
 C  C94  1  0.12632578  0.30364757  0.13950822  1  0.091831
 C  C95  1  0.87367425  0.69635243  0.86049181  1  0.091830
 C  C96  1  0.22369405  0.24316523  0.34140744  1  -0.129975
 C  C97  1  0.77630598  0.75683475  0.65859256  1  -0.129973
 C  C98  1  0.27630595  0.24316523  0.65859256  1  -0.129973
 C  C99  1  0.72369402  0.75683475  0.34140744  1  -0.129975
 C  C100  1  0.27630595  0.25683475  0.84140744  1  -0.129973
 C  C101  1  0.72369402  0.74316525  0.15859256  1  -0.129975
 C  C102  1  0.22369405  0.25683475  0.15859256  1  -0.129975
 C  C103  1  0.77630598  0.74316525  0.84140744  1  -0.129972
 C  C104  1  0.14737569  0.30173633  0.33377743  1  -0.061787
 C  C105  1  0.85262431  0.69826367  0.66622260  1  -0.061792
 C  C106  1  0.35262431  0.30173633  0.66622260  1  -0.061792
 C  C107  1  0.64737569  0.69826367  0.33377743  1  -0.061787
 C  C108  1  0.35262431  0.19826367  0.83377740  1  -0.061792
 C  C109  1  0.64737569  0.80173633  0.16622257  1  -0.061788
 C  C110  1  0.14737569  0.19826367  0.16622257  1  -0.061787
 C  C111  1  0.85262431  0.80173633  0.83377740  1  -0.061792
 C  C112  1  0.97103462  0.31462347  0.34500470  1  -0.043510
 C  C113  1  0.02896537  0.68537653  0.65499530  1  -0.043510
 C  C114  1  0.52896537  0.31462347  0.65499530  1  -0.043510
 C  C115  1  0.47103463  0.68537653  0.34500470  1  -0.043511
 C  C116  1  0.52896537  0.18537653  0.84500470  1  -0.043510
 C  C117  1  0.47103463  0.81462347  0.15499530  1  -0.043510
 C  C118  1  0.97103462  0.18537653  0.15499530  1  -0.043511
 C  C119  1  0.02896537  0.81462347  0.84500470  1  -0.043509
 C  C120  1  0.87346711  0.26815252  0.36399011  1  -0.068756
 C  C121  1  0.12653287  0.73184745  0.63600989  1  -0.068759
 C  C122  1  0.62653289  0.26815252  0.63600989  1  -0.068758
 C  C123  1  0.37346711  0.73184745  0.36399011  1  -0.068757
 C  C124  1  0.62653289  0.23184748  0.86399011  1  -0.068759
 C  C125  1  0.37346711  0.76815255  0.13600989  1  -0.068756
 C  C126  1  0.87346711  0.23184748  0.13600989  1  -0.068756
 C  C127  1  0.12653287  0.76815255  0.86399011  1  -0.068759
 C  C128  1  0.95061376  0.20948427  0.37165049  1  -0.148027
 C  C129  1  0.04938626  0.79051571  0.62834954  1  -0.148023
 C  C130  1  0.54938624  0.20948427  0.62834954  1  -0.148024
 C  C131  1  0.45061376  0.79051571  0.37165049  1  -0.148027
 C  C132  1  0.54938624  0.29051571  0.87165046  1  -0.148024
 C  C133  1  0.45061376  0.70948429  0.12834951  1  -0.148027
 C  C134  1  0.95061376  0.29051571  0.12834951  1  -0.148027
 C  C135  1  0.04938626  0.70948429  0.87165046  1  -0.148024
 C  C136  1  0.88890187  0.37714654  0.33882954  1  0.613888
 C  C137  1  0.11109810  0.62285349  0.66117049  1  0.613885
 C  C138  1  0.61109813  0.37714654  0.66117049  1  0.613886
 C  C139  1  0.38890190  0.62285349  0.33882954  1  0.613887
 C  C140  1  0.61109813  0.12285346  0.83882951  1  0.613885
 C  C141  1  0.38890190  0.87714651  0.16117046  1  0.613887
 C  C142  1  0.88890187  0.12285346  0.16117046  1  0.613888
 C  C143  1  0.11109810  0.87714651  0.83882951  1  0.613885
 C  C144  1  0.35704795  0.14243621  0.39893814  1  0.679384
 C  C145  1  0.64295205  0.85756376  0.60106186  1  0.679387
 C  C146  1  0.14295205  0.14243621  0.60106186  1  0.679388
 C  C147  1  0.85704795  0.85756376  0.39893814  1  0.679384
 C  C148  1  0.14295205  0.35756379  0.89893814  1  0.679388
 C  C149  1  0.85704795  0.64243624  0.10106186  1  0.679382
 C  C150  1  0.35704795  0.35756379  0.10106186  1  0.679383
 C  C151  1  0.64295205  0.64243624  0.89893814  1  0.679388
 C  C152  1  0.30609084  0.11044862  0.33104903  1  0.089859
 C  C153  1  0.69390916  0.88955139  0.66895097  1  0.089857
 C  C154  1  0.19390916  0.11044862  0.66895097  1  0.089863
 C  C155  1  0.80609084  0.88955139  0.33104903  1  0.089853
 C  C156  1  0.19390916  0.38955139  0.83104903  1  0.089857
 C  C157  1  0.80609084  0.61044861  0.16895097  1  0.089854
 C  C158  1  0.30609084  0.38955139  0.16895097  1  0.089853
 C  C159  1  0.69390916  0.61044861  0.83104903  1  0.089858
 C  C160  1  0.47987787  0.08561450  0.32883936  1  -0.144246
 C  C161  1  0.52012216  0.91438551  0.67116064  1  -0.144249
 C  C162  1  0.02012213  0.08561450  0.67116064  1  -0.144249
 C  C163  1  0.97987784  0.91438551  0.32883936  1  -0.144247
 C  C164  1  0.02012213  0.41438551  0.82883936  1  -0.144251
 C  C165  1  0.97987784  0.58561449  0.17116064  1  -0.144247
 C  C166  1  0.47987787  0.41438551  0.17116064  1  -0.144247
 C  C167  1  0.52012216  0.58561449  0.82883936  1  -0.144251
 C  C168  1  0.55075513  0.06812237  0.29498854  1  -0.074466
 C  C169  1  0.44924487  0.93187766  0.70501149  1  -0.074455
 C  C170  1  0.94924487  0.06812237  0.70501149  1  -0.074464
 C  C171  1  0.05075513  0.93187766  0.29498854  1  -0.074457
 C  C172  1  0.94924487  0.43187763  0.79498851  1  -0.074455
 C  C173  1  0.05075513  0.56812234  0.20501146  1  -0.074457
 C  C174  1  0.55075513  0.43187763  0.20501146  1  -0.074457
 C  C175  1  0.44924487  0.56812234  0.79498851  1  -0.074455
 C  C176  1  0.44850176  0.07500197  0.26290020  1  -0.037952
 C  C177  1  0.55149824  0.92499801  0.73709980  1  -0.037958
 C  C178  1  0.05149824  0.07500197  0.73709980  1  -0.037957
 C  C179  1  0.94850176  0.92499801  0.26290020  1  -0.037953
 C  C180  1  0.05149824  0.42499801  0.76290020  1  -0.037957
 C  C181  1  0.94850176  0.57500199  0.23709980  1  -0.037953
 C  C182  1  0.44850176  0.42499801  0.23709980  1  -0.037953
 C  C183  1  0.55149824  0.57500199  0.76290020  1  -0.037957
 C  C184  1  0.27368009  0.09919513  0.26503705  1  -0.067862
 C  C185  1  0.72631988  0.90080487  0.73496292  1  -0.067862
 C  C186  1  0.22631991  0.09919513  0.73496292  1  -0.067859
 C  C187  1  0.77368012  0.90080487  0.26503705  1  -0.067866
 C  C188  1  0.22631991  0.40080487  0.76503708  1  -0.067861
 C  C189  1  0.77368012  0.59919513  0.23496295  1  -0.067866
 C  C190  1  0.27368009  0.40080487  0.23496295  1  -0.067866
 C  C191  1  0.72631988  0.59919513  0.76503708  1  -0.067861
 C  C192  1  0.20382772  0.11687926  0.29879382  1  -0.128191
 C  C193  1  0.79617225  0.88312073  0.70120621  1  -0.128189
 C  C194  1  0.29617228  0.11687926  0.70120621  1  -0.128192
 C  C195  1  0.70382775  0.88312073  0.29879382  1  -0.128188
 C  C196  1  0.29617228  0.38312073  0.79879379  1  -0.128189
 C  C197  1  0.70382775  0.61687927  0.20120618  1  -0.128188
 C  C198  1  0.20382772  0.38312073  0.20120618  1  -0.128188
 C  C199  1  0.79617225  0.61687927  0.79879379  1  -0.128189
 C  C200  1  0.52575281  0.05459845  0.22767251  1  0.615570
 C  C201  1  0.47424719  0.94540153  0.77232749  1  0.615561
 C  C202  1  0.97424719  0.05459845  0.77232749  1  0.615576
 C  C203  1  0.02575281  0.94540153  0.22767251  1  0.615555
 C  C204  1  0.97424719  0.44540156  0.72767251  1  0.615559
 C  C205  1  0.02575281  0.55459847  0.27232749  1  0.615557
 C  C206  1  0.52575281  0.44540156  0.27232749  1  0.615557
 C  C207  1  0.47424719  0.55459847  0.72767251  1  0.615560
 C  C208  1  0.25000000  0.73481655  0.50000000  1  -0.274697
 C  C209  1  0.75000000  0.26518345  0.50000000  1  -0.274698
 C  C210  1  0.25000000  0.76518345  0.00000000  1  -0.274697
 C  C211  1  0.75000000  0.23481655  0.00000000  1  -0.274699
 O  O212  1  0.97111513  0.52112128  0.38122975  1  -0.710725
 O  O213  1  0.02888486  0.47887872  0.61877025  1  -0.710753
 O  O214  1  0.52888487  0.52112128  0.61877025  1  -0.710753
 O  O215  1  0.47111513  0.47887872  0.38122975  1  -0.710725
 O  O216  1  0.52888487  0.97887872  0.88122975  1  -0.710752
 O  O217  1  0.47111513  0.02112128  0.11877025  1  -0.710724
 O  O218  1  0.97111513  0.97887872  0.11877025  1  -0.710724
 O  O219  1  0.02888486  0.02112128  0.88122975  1  -0.710752
 O  O220  1  0.73368024  0.58478285  0.38370750  1  -0.564432
 O  O221  1  0.26631976  0.41521715  0.61629247  1  -0.564458
 O  O222  1  0.76631976  0.58478285  0.61629247  1  -0.564458
 O  O223  1  0.23368024  0.41521715  0.38370750  1  -0.564431
 O  O224  1  0.76631976  0.91521715  0.88370753  1  -0.564455
 O  O225  1  0.23368024  0.08478285  0.11629250  1  -0.564432
 O  O226  1  0.73368024  0.91521715  0.11629250  1  -0.564429
 O  O227  1  0.26631976  0.08478285  0.88370753  1  -0.564458
 O  O228  1  0.72912681  0.38785690  0.34941856  1  -0.577129
 O  O229  1  0.27087319  0.61214307  0.65058147  1  -0.577118
 O  O230  1  0.77087319  0.38785690  0.65058147  1  -0.577119
 O  O231  1  0.22912681  0.61214307  0.34941856  1  -0.577128
 O  O232  1  0.77087319  0.11214310  0.84941853  1  -0.577117
 O  O233  1  0.22912681  0.88785693  0.15058144  1  -0.577127
 O  O234  1  0.72912681  0.11214310  0.15058144  1  -0.577125
 O  O235  1  0.27087319  0.88785693  0.84941853  1  -0.577119
 O  O236  1  0.97992880  0.42253746  0.32316687  1  -0.698928
 O  O237  1  0.02007120  0.57746254  0.67683310  1  -0.698934
 O  O238  1  0.52007120  0.42253746  0.67683310  1  -0.698935
 O  O239  1  0.47992880  0.57746254  0.32316687  1  -0.698927
 O  O240  1  0.52007120  0.07746254  0.82316690  1  -0.698929
 O  O241  1  0.47992880  0.92253746  0.17683313  1  -0.698929
 O  O242  1  0.97992880  0.07746254  0.17683313  1  -0.698926
 O  O243  1  0.02007120  0.92253746  0.82316690  1  -0.698932
 O  O244  1  0.43257765  0.05760151  0.19749347  1  -0.698692
 O  O245  1  0.56742238  0.94239850  0.80250653  1  -0.698686
 O  O246  1  0.06742235  0.05760151  0.80250653  1  -0.698690
 O  O247  1  0.93257762  0.94239850  0.19749347  1  -0.698687
 O  O248  1  0.06742235  0.44239850  0.69749347  1  -0.698686
 O  O249  1  0.93257762  0.55760150  0.30250653  1  -0.698692
 O  O250  1  0.43257765  0.44239850  0.30250653  1  -0.698692
 O  O251  1  0.56742238  0.55760150  0.69749347  1  -0.698686
 O  O252  1  0.68513688  0.03311489  0.22687199  1  -0.575068
 O  O253  1  0.31486312  0.96688514  0.77312800  1  -0.575071
 O  O254  1  0.81486312  0.03311489  0.77312800  1  -0.575070
 O  O255  1  0.18513688  0.96688514  0.22687199  1  -0.575068
 O  O256  1  0.81486312  0.46688511  0.72687200  1  -0.575068
 O  O257  1  0.18513688  0.53311486  0.27312800  1  -0.575064
 O  O258  1  0.68513688  0.46688511  0.27312800  1  -0.575065
 O  O259  1  0.31486312  0.53311486  0.72687200  1  -0.575069
 F  F260  1  0.98965136  0.74335836  0.53883082  1  -0.195082
 F  F261  1  0.01034865  0.25664164  0.46116918  1  -0.195080
 F  F262  1  0.51034864  0.74335836  0.46116918  1  -0.195080
 F  F263  1  0.48965136  0.25664164  0.53883082  1  -0.195083
 F  F264  1  0.51034864  0.75664164  0.03883082  1  -0.195081
 F  F265  1  0.48965136  0.24335836  0.96116918  1  -0.195081
 F  F266  1  0.98965136  0.75664164  0.96116918  1  -0.195081
 F  F267  1  0.01034865  0.24335836  0.03883082  1  -0.195082
 F  F268  1  0.21345035  0.80794798  0.55021663  1  -0.198578
 F  F269  1  0.78654963  0.19205202  0.44978337  1  -0.198576
 F  F270  1  0.28654963  0.80794798  0.44978337  1  -0.198577
 F  F271  1  0.71345037  0.19205202  0.55021663  1  -0.198578
 F  F272  1  0.28654963  0.69205202  0.05021663  1  -0.198579
 F  F273  1  0.71345037  0.30794798  0.94978337  1  -0.198575
 F  F274  1  0.21345035  0.69205202  0.94978337  1  -0.198575
 F  F275  1  0.78654963  0.30794798  0.05021663  1  -0.198579
 F  F276  1  0.04111977  0.82465437  0.50269294  1  -0.199005
 F  F277  1  0.95888023  0.17534563  0.49730706  1  -0.199002
 F  F278  1  0.45888023  0.82465437  0.49730706  1  -0.199001
 F  F279  1  0.54111977  0.17534563  0.50269294  1  -0.199005
 F  F280  1  0.45888023  0.67534563  0.00269294  1  -0.199000
 F  F281  1  0.54111977  0.32465437  0.99730706  1  -0.199006
 F  F282  1  0.04111977  0.67534563  0.99730706  1  -0.199006
 F  F283  1  0.95888023  0.32465437  0.00269294  1  -0.199000
 F  F284  1  0.94802648  0.07322511  0.35473521  1  -0.197069
 F  F285  1  0.05197352  0.92677488  0.64526479  1  -0.197072
 F  F286  1  0.55197352  0.07322511  0.64526479  1  -0.197071
 F  F287  1  0.44802648  0.92677488  0.35473521  1  -0.197070
 F  F288  1  0.55197352  0.42677488  0.85473521  1  -0.197069
 F  F289  1  0.44802648  0.57322512  0.14526479  1  -0.197071
 F  F290  1  0.94802648  0.42677488  0.14526479  1  -0.197071
 F  F291  1  0.05197352  0.57322512  0.85473521  1  -0.197070
 F  F292  1  0.17072377  0.02109487  0.37976281  1  -0.203025
 F  F293  1  0.82927622  0.97890512  0.62023716  1  -0.203027
 F  F294  1  0.32927622  0.02109487  0.62023716  1  -0.203027
 F  F295  1  0.67072378  0.97890512  0.37976281  1  -0.203026
 F  F296  1  0.32927622  0.47890512  0.87976284  1  -0.203026
 F  F297  1  0.67072378  0.52109488  0.12023719  1  -0.203025
 F  F298  1  0.17072377  0.47890512  0.12023719  1  -0.203024
 F  F299  1  0.82927622  0.52109488  0.87976284  1  -0.203026
 F  F300  1  0.01358649  0.08751306  0.41288329  1  -0.199514
 F  F301  1  0.98641349  0.91248695  0.58711671  1  -0.199519
 F  F302  1  0.48641351  0.08751306  0.58711671  1  -0.199513
 F  F303  1  0.51358652  0.91248695  0.41288329  1  -0.199520
 F  F304  1  0.48641351  0.41248695  0.91288329  1  -0.199515
 F  F305  1  0.51358652  0.58751305  0.08711671  1  -0.199518
 F  F306  1  0.01358649  0.41248695  0.08711671  1  -0.199511
 F  F307  1  0.98641349  0.58751305  0.91288329  1  -0.199522
 F  F308  1  0.49311502  0.18163689  0.38804091  1  -0.195939
 F  F309  1  0.50688498  0.81836308  0.61195906  1  -0.195943
 F  F310  1  0.00688498  0.18163689  0.61195906  1  -0.195942
 F  F311  1  0.99311502  0.81836308  0.38804091  1  -0.195940
 F  F312  1  0.00688498  0.31836311  0.88804094  1  -0.195942
 F  F313  1  0.99311502  0.68163692  0.11195909  1  -0.195941
 F  F314  1  0.49311502  0.31836311  0.11195909  1  -0.195941
 F  F315  1  0.50688498  0.68163692  0.88804094  1  -0.195943
 F  F316  1  0.27739622  0.17044842  0.42839408  1  -0.202542
 F  F317  1  0.72260378  0.82955158  0.57160592  1  -0.202539
 F  F318  1  0.22260378  0.17044842  0.57160592  1  -0.202539
 F  F319  1  0.77739622  0.82955158  0.42839408  1  -0.202541
 F  F320  1  0.22260378  0.32955158  0.92839408  1  -0.202542
 F  F321  1  0.77739622  0.67044842  0.07160592  1  -0.202539
 F  F322  1  0.27739622  0.32955158  0.07160592  1  -0.202539
 F  F323  1  0.72260378  0.67044842  0.92839408  1  -0.202542
 F  F324  1  0.43401674  0.08784811  0.41120337  1  -0.199164
 F  F325  1  0.56598323  0.91215189  0.58879660  1  -0.199162
 F  F326  1  0.06598326  0.08784811  0.58879660  1  -0.199163
 F  F327  1  0.93401677  0.91215189  0.41120337  1  -0.199163
 F  F328  1  0.06598326  0.41215189  0.91120340  1  -0.199165
 F  F329  1  0.93401677  0.58784811  0.08879663  1  -0.199161
 F  F330  1  0.43401674  0.41215189  0.08879663  1  -0.199163
 F  F331  1  0.56598323  0.58784811  0.91120340  1  -0.199163
 H  H332  1  0.31444462  0.95160552  0.70686906  1  0.117886
 H  H333  1  0.68555538  0.04839448  0.29313094  1  0.117890
 H  H334  1  0.18555538  0.95160552  0.29313094  1  0.117889
 H  H335  1  0.81444462  0.04839448  0.70686906  1  0.117888
 H  H336  1  0.18555538  0.54839448  0.20686906  1  0.117889
 H  H337  1  0.81444462  0.45160552  0.79313094  1  0.117886
 H  H338  1  0.31444462  0.54839448  0.79313094  1  0.117886
 H  H339  1  0.68555538  0.45160552  0.20686906  1  0.117888
 H  H340  1  0.43820460  0.92052700  0.64676613  1  0.104508
 H  H341  1  0.56179540  0.07947300  0.35323387  1  0.104502
 H  H342  1  0.06179540  0.92052700  0.35323387  1  0.104503
 H  H343  1  0.93820460  0.07947300  0.64676613  1  0.104507
 H  H344  1  0.06179540  0.57947300  0.14676613  1  0.104504
 H  H345  1  0.93820460  0.42052700  0.85323387  1  0.104507
 H  H346  1  0.43820460  0.57947300  0.85323387  1  0.104506
 H  H347  1  0.56179540  0.42052700  0.14676613  1  0.104504
 H  H348  1  0.80711103  0.89624931  0.75973499  1  0.109674
 H  H349  1  0.19288897  0.10375069  0.24026501  1  0.109675
 H  H350  1  0.69288897  0.89624931  0.24026501  1  0.109674
 H  H351  1  0.30711103  0.10375069  0.75973499  1  0.109674
 H  H352  1  0.69288897  0.60375069  0.25973499  1  0.109673
 H  H353  1  0.30711103  0.39624931  0.74026501  1  0.109675
 H  H354  1  0.80711103  0.60375069  0.74026501  1  0.109675
 H  H355  1  0.19288897  0.39624931  0.25973499  1  0.109672
 H  H356  1  0.93107179  0.86348221  0.69988733  1  0.113228
 H  H357  1  0.06892821  0.13651779  0.30011267  1  0.113228
 H  H358  1  0.56892821  0.86348221  0.30011267  1  0.113228
 H  H359  1  0.43107179  0.13651779  0.69988733  1  0.113229
 H  H360  1  0.56892821  0.63651779  0.19988733  1  0.113228
 H  H361  1  0.43107179  0.36348221  0.80011267  1  0.113229
 H  H362  1  0.93107179  0.63651779  0.80011267  1  0.113229
 H  H363  1  0.06892821  0.36348221  0.19988733  1  0.113228
 H  H364  1  0.76249114  0.27876742  0.62691942  1  0.116012
 H  H365  1  0.23750886  0.72123261  0.37308058  1  0.116009
 H  H366  1  0.73750886  0.27876742  0.37308058  1  0.116010
 H  H367  1  0.26249114  0.72123261  0.62691942  1  0.116012
 H  H368  1  0.73750886  0.22123258  0.12691942  1  0.116010
 H  H369  1  0.26249114  0.77876739  0.87308058  1  0.116012
 H  H370  1  0.76249114  0.22123258  0.87308058  1  0.116012
 H  H371  1  0.23750886  0.77876739  0.12691942  1  0.116010
 H  H372  1  0.27505606  0.16219790  0.81936874  1  0.107324
 H  H373  1  0.72494394  0.83780210  0.18063126  1  0.107324
 H  H374  1  0.22494394  0.16219790  0.18063126  1  0.107325
 H  H375  1  0.77505606  0.83780210  0.81936874  1  0.107323
 H  H376  1  0.22494394  0.33780210  0.31936874  1  0.107325
 H  H377  1  0.77505606  0.66219790  0.68063126  1  0.107322
 H  H378  1  0.27505606  0.33780210  0.68063126  1  0.107322
 H  H379  1  0.72494394  0.66219790  0.31936874  1  0.107325
 H  H380  1  0.62804558  0.32546675  0.88648377  1  0.103544
 H  H381  1  0.37195442  0.67453325  0.11351623  1  0.103545
 H  H382  1  0.87195442  0.32546675  0.11351623  1  0.103545
 H  H383  1  0.12804558  0.67453325  0.88648377  1  0.103544
 H  H384  1  0.87195442  0.17453325  0.38648377  1  0.103544
 H  H385  1  0.12804558  0.82546675  0.61351623  1  0.103544
 H  H386  1  0.62804558  0.17453325  0.61351623  1  0.103545
 H  H387  1  0.37195442  0.82546675  0.38648377  1  0.103544
 H  H388  1  0.14024169  0.26659847  0.83212101  1  0.113242
 H  H389  1  0.85975831  0.73340156  0.16787899  1  0.113243
 H  H390  1  0.35975831  0.26659847  0.16787899  1  0.113243
 H  H391  1  0.64024169  0.73340156  0.83212101  1  0.113242
 H  H392  1  0.35975831  0.23340153  0.33212101  1  0.113244
 H  H393  1  0.64024169  0.76659844  0.66787899  1  0.113242
 H  H394  1  0.14024169  0.23340153  0.66787899  1  0.113241
 H  H395  1  0.85975831  0.76659844  0.33212101  1  0.113244
 H  H396  1  0.74341071  0.67555327  0.57454821  1  0.116243
 H  H397  1  0.25658929  0.32444673  0.42545179  1  0.116238
 H  H398  1  0.75658929  0.67555327  0.42545179  1  0.116238
 H  H399  1  0.24341071  0.32444673  0.57454821  1  0.116243
 H  H400  1  0.75658929  0.82444673  0.07454821  1  0.116238
 H  H401  1  0.24341071  0.17555327  0.92545179  1  0.116243
 H  H402  1  0.74341071  0.82444673  0.92545179  1  0.116243
 H  H403  1  0.25658929  0.17555327  0.07454821  1  0.116238
 H  H404  1  0.27167806  0.55754002  0.57690947  1  0.108275
 H  H405  1  0.72832194  0.44245998  0.42309053  1  0.108276
 H  H406  1  0.22832194  0.55754002  0.42309053  1  0.108276
 H  H407  1  0.77167806  0.44245998  0.57690947  1  0.108275
 H  H408  1  0.22832194  0.94245998  0.07690947  1  0.108276
 H  H409  1  0.77167806  0.05754002  0.92309053  1  0.108276
 H  H410  1  0.27167806  0.94245998  0.92309053  1  0.108276
 H  H411  1  0.72832194  0.05754002  0.07690947  1  0.108276
 H  H412  1  0.12344850  0.62874577  0.53271087  1  0.114020
 H  H413  1  0.87655150  0.37125423  0.46728913  1  0.114022
 H  H414  1  0.37655150  0.62874577  0.46728913  1  0.114022
 H  H415  1  0.62344850  0.37125423  0.53271087  1  0.114021
 H  H416  1  0.37655150  0.87125423  0.03271087  1  0.114022
 H  H417  1  0.62344850  0.12874577  0.96728913  1  0.114020
 H  H418  1  0.12344850  0.87125423  0.96728913  1  0.114020
 H  H419  1  0.87655150  0.12874577  0.03271087  1  0.114022
 H  H420  1  0.59806779  0.74657910  0.52979831  1  0.104392
 H  H421  1  0.40193221  0.25342090  0.47020169  1  0.104393
 H  H422  1  0.90193221  0.74657910  0.47020169  1  0.104392
 H  H423  1  0.09806779  0.25342090  0.52979831  1  0.104391
 H  H424  1  0.90193221  0.75342090  0.02979831  1  0.104393
 H  H425  1  0.09806779  0.24657910  0.97020169  1  0.104391
 H  H426  1  0.59806779  0.75342090  0.97020169  1  0.104390
 H  H427  1  0.40193221  0.24657910  0.02979831  1  0.104392
