# generated using pymatgen
data_mil-53-f4
_symmetry_space_group_name_H-M   'P 1'
_cell_length_a   6.63133877
_cell_length_b   18.67250761
_cell_length_c   9.75192722
_cell_angle_alpha   90.13951372
_cell_angle_beta   89.47342344
_cell_angle_gamma   89.80812532
_symmetry_Int_Tables_number   1
_chemical_formula_structural   Al4 H4 C32 O20 F16
_chemical_formula_sum   'C32 F16 O20 Al4 H4'
_cell_volume   1207.45850221
_cell_formula_units_Z   6
loop_
 _symmetry_equiv_pos_site_id
 _symmetry_equiv_pos_as_xyz
  1  'x, y, z'
loop_
 _atom_site_type_symbol
 _atom_site_label
 _atom_site_symmetry_multiplicity
 _atom_site_fract_x
 _atom_site_fract_y
 _atom_site_fract_z
 _atom_site_occupancy
 _atom_site_charge
 C  C0  1  0.00657818  0.15446788  0.89974337  1  0.686219
 C  C1  1  0.99379026  0.85855025  0.09942753  1  0.687562
 C  C2  1  0.00421612  0.35904359  0.88254018  1  0.692206
 C  C3  1  0.99440590  0.65347999  0.08771849  1  0.687278
 C  C4  1  0.49316550  0.64682173  0.37885419  1  0.685358
 C  C5  1  0.50716627  0.35435717  0.59084084  1  0.688105
 C  C6  1  0.48343009  0.85179028  0.40166857  1  0.682162
 C  C7  1  0.51612041  0.14908770  0.59681121  1  0.686700
 C  C8  1  0.99809981  0.08069337  0.96004016  1  -0.212108
 C  C9  1  0.00072804  0.93332748  0.04384474  1  -0.214105
 C  C10  1  0.00501191  0.43366138  0.93877547  1  -0.213609
 C  C11  1  0.99156963  0.57965679  0.02775188  1  -0.212879
 C  C12  1  0.49476255  0.57234053  0.43501621  1  -0.213030
 C  C13  1  0.50881574  0.42778551  0.52967149  1  -0.211456
 C  C14  1  0.48570119  0.92597543  0.46107091  1  -0.211957
 C  C15  1  0.51146051  0.07400652  0.54190871  1  -0.212973
 C  C16  1  0.83540705  0.53172345  0.05906791  1  0.170187
 C  C17  1  0.15358808  0.55284323  0.94962056  1  0.168995
 C  C18  1  0.83476098  0.96394241  0.97752653  1  0.169896
 C  C19  1  0.16365137  0.05019905  0.02710969  1  0.169557
 C  C20  1  0.65646926  0.95359277  0.52646298  1  0.172690
 C  C21  1  0.34034539  0.04629084  0.47701756  1  0.170965
 C  C22  1  0.35337249  0.45204079  0.44512036  1  0.167285
 C  C23  1  0.65105946  0.54792224  0.51867656  1  0.168715
 C  C24  1  0.84260079  0.46052751  0.01631141  1  0.167766
 C  C25  1  0.16052903  0.48168129  0.90666362  1  0.171011
 C  C26  1  0.16661376  0.97842225  0.06582792  1  0.168404
 C  C27  1  0.83174155  0.03573283  0.93894753  1  0.169654
 C  C28  1  0.32597831  0.97432577  0.44023981  1  0.167598
 C  C29  1  0.67041639  0.02545531  0.56388980  1  0.166645
 C  C30  1  0.65831373  0.47736908  0.56447758  1  0.170252
 C  C31  1  0.34627812  0.52253979  0.39904270  1  0.169735
 F  F32  1  0.67600218  0.55181989  0.13692788  1  -0.092331
 F  F33  1  0.30652877  0.59573520  0.91044563  1  -0.097101
 F  F34  1  0.67264474  0.92430418  0.94449547  1  -0.102454
 F  F35  1  0.32551740  0.09001283  0.05979738  1  -0.101675
 F  F36  1  0.81364313  0.91111353  0.55866639  1  -0.100488
 F  F37  1  0.18332845  0.08869926  0.44378635  1  -0.100448
 F  F38  1  0.20794247  0.40709274  0.40265151  1  -0.097868
 F  F39  1  0.79691405  0.59268313  0.56128191  1  -0.097936
 F  F40  1  0.68966295  0.41765626  0.05566342  1  -0.096553
 F  F41  1  0.31913732  0.46140168  0.82823766  1  -0.094226
 F  F42  1  0.33433233  0.95484259  0.12847641  1  -0.097394
 F  F43  1  0.66380604  0.05918675  0.87661449  1  -0.096249
 F  F44  1  0.15325906  0.95418314  0.37998104  1  -0.096489
 F  F45  1  0.84255010  0.04550719  0.62506380  1  -0.097940
 F  F46  1  0.81014671  0.45942887  0.64876863  1  -0.094046
 F  F47  1  0.19516919  0.54038702  0.31401278  1  -0.095515
 O  O48  1  0.65388462  0.82320783  0.37718772  1  -0.590346
 O  O49  1  0.34674415  0.17916982  0.61773099  1  -0.593579
 O  O50  1  0.32304689  0.67661317  0.36310170  1  -0.576442
 O  O51  1  0.67568864  0.32358818  0.60762310  1  -0.577799
 O  O52  1  0.33592535  0.32963428  0.62383506  1  -0.576462
 O  O53  1  0.66329661  0.67370555  0.34994286  1  -0.579205
 O  O54  1  0.68780610  0.17557189  0.62176137  1  -0.594271
 O  O55  1  0.31267520  0.82486778  0.37563771  1  -0.592620
 O  O56  1  0.17218552  0.32703103  0.86923910  1  -0.582514
 O  O57  1  0.82699134  0.68537597  0.10492149  1  -0.579952
 O  O58  1  0.84027520  0.18643438  0.88044464  1  -0.596244
 O  O59  1  0.16075141  0.82656506  0.11596734  1  -0.595843
 O  O60  1  0.82018051  0.83437075  0.12879054  1  -0.589448
 O  O61  1  0.18060038  0.17754630  0.86811205  1  -0.589630
 O  O62  1  0.16598616  0.67745833  0.12003256  1  -0.575654
 O  O63  1  0.83352793  0.33435335  0.85026576  1  -0.579117
 O  O64  1  0.01191521  0.24999207  0.65866324  1  -0.988333
 O  O65  1  0.98834107  0.75277953  0.32545638  1  -0.989403
 O  O66  1  0.49087923  0.75761114  0.15859668  1  -0.988241
 O  O67  1  0.50923554  0.25328383  0.82596678  1  -0.988772
 Al  Al68  1  0.25947369  0.25403472  0.74418642  1  1.650063
 Al  Al69  1  0.74040927  0.75328732  0.24036361  1  1.650380
 Al  Al70  1  0.75955668  0.25488451  0.74027083  1  1.647057
 Al  Al71  1  0.24042337  0.75162667  0.24335095  1  1.646454
 H  H72  1  0.51197327  0.23137588  0.91596397  1  0.447010
 H  H73  1  0.01531804  0.22285852  0.57374196  1  0.445618
 H  H74  1  0.98595743  0.77272857  0.41731939  1  0.447119
 H  H75  1  0.48803851  0.78473513  0.07396853  1  0.446061
