# generated using pymatgen
data_mil-53-ndc
_symmetry_space_group_name_H-M   'P 1'
_cell_length_a   22.43196120
_cell_length_b   6.64020004
_cell_length_c   11.95552809
_cell_angle_alpha   90.08351226
_cell_angle_beta   90.00243354
_cell_angle_gamma   90.00093679
_symmetry_Int_Tables_number   1
_chemical_formula_structural   Al4 H28 C48 O20
_chemical_formula_sum   'O20 C48 H28 Al4'
_cell_volume   1780.80641061
_cell_formula_units_Z   6
loop_
 _symmetry_equiv_pos_site_id
 _symmetry_equiv_pos_as_xyz
  1  'x, y, z'
loop_
 _atom_site_type_symbol
 _atom_site_label
 _atom_site_symmetry_multiplicity
 _atom_site_fract_x
 _atom_site_fract_y
 _atom_site_fract_z
 _atom_site_occupancy
 _atom_site_charge
 O  O0  1  0.30511465  0.67008747  0.35690746  1  -0.613241
 O  O1  1  0.69302584  0.33047614  0.64743489  1  -0.591107
 O  O2  1  0.19302332  0.33101038  0.35241842  1  -0.591425
 O  O3  1  0.80507224  0.66940608  0.64325888  1  -0.613104
 O  O4  1  0.19303076  0.16888194  0.14754838  1  -0.591831
 O  O5  1  0.80502482  0.83056370  0.85686420  1  -0.613365
 O  O6  1  0.30511123  0.82980911  0.14309436  1  -0.612609
 O  O7  1  0.69301152  0.16942135  0.85256934  1  -0.590918
 O  O8  1  0.31684961  0.33115442  0.34999644  1  -0.605375
 O  O9  1  0.68131854  0.66839169  0.65305183  1  -0.586233
 O  O10  1  0.18129019  0.66886137  0.34689472  1  -0.586178
 O  O11  1  0.81690439  0.33057588  0.65012333  1  -0.602915
 O  O12  1  0.18129794  0.83102855  0.15307016  1  -0.586663
 O  O13  1  0.81688621  0.16938100  0.84997324  1  -0.603849
 O  O14  1  0.31685712  0.16874564  0.15001214  1  -0.605091
 O  O15  1  0.68128291  0.83151546  0.84688413  1  -0.586040
 O  O16  1  0.25054378  0.50007311  0.18127504  1  -0.988662
 O  O17  1  0.75044515  0.50042069  0.81868960  1  -0.988874
 O  O18  1  0.25054353  0.99984078  0.31870155  1  -0.988697
 O  O19  1  0.75046664  0.99954460  0.68135139  1  -0.989287
 C  C20  1  0.33405005  0.50832612  0.37572100  1  0.649618
 C  C21  1  0.66405695  0.49137147  0.62815615  1  0.641572
 C  C22  1  0.16405562  0.49192000  0.37180041  1  0.642734
 C  C23  1  0.83409635  0.50769439  0.62455517  1  0.646781
 C  C24  1  0.16406348  0.00798093  0.12816196  1  0.643370
 C  C25  1  0.83406669  0.99224522  0.87554948  1  0.647543
 C  C26  1  0.33404974  0.99158384  0.12428583  1  0.648536
 C  C27  1  0.66403281  0.00853521  0.87181030  1  0.641474
 C  C28  1  0.39318514  0.53283876  0.43093676  1  -0.045328
 C  C29  1  0.60496485  0.46601872  0.57309369  1  -0.038935
 C  C30  1  0.10501343  0.46655722  0.42699855  1  -0.040174
 C  C31  1  0.89328401  0.53237009  0.56962407  1  -0.043976
 C  C32  1  0.10502167  0.03332625  0.07296008  1  -0.040597
 C  C33  1  0.89326378  0.96753934  0.93045393  1  -0.043514
 C  C34  1  0.39317737  0.96703962  0.06905945  1  -0.044754
 C  C35  1  0.60494428  0.03387910  0.92686805  1  -0.039257
 C  C36  1  0.40802479  0.72111512  0.48023045  1  -0.096611
 C  C37  1  0.59022671  0.27711359  0.52447138  1  -0.097379
 C  C38  1  0.09034929  0.27750583  0.47524508  1  -0.096806
 C  C39  1  0.90808505  0.72088987  0.52088105  1  -0.098534
 C  C40  1  0.09034978  0.22237961  0.02473089  1  -0.095892
 C  C41  1  0.90807443  0.77900242  0.97916353  1  -0.099242
 C  C42  1  0.40800636  0.77878390  0.01974267  1  -0.096792
 C  C43  1  0.59021365  0.22276127  0.97551195  1  -0.097463
 C  C44  1  0.46297006  0.74993020  0.52849075  1  -0.133671
 C  C45  1  0.53530956  0.24849272  0.47586545  1  -0.134747
 C  C46  1  0.03548099  0.24865968  0.52393440  1  -0.135520
 C  C47  1  0.96301820  0.75004722  0.47269642  1  -0.132278
 C  C48  1  0.03547429  0.25123890  0.97607136  1  -0.135976
 C  C49  1  0.96302001  0.74982180  0.02730331  1  -0.132509
 C  C50  1  0.46294531  0.74995884  0.97146702  1  -0.133947
 C  C51  1  0.53530215  0.25137025  0.02413290  1  -0.134397
 C  C52  1  0.49180644  0.40422034  0.47668646  1  0.076602
 C  C53  1  0.50648965  0.59442375  0.52727652  1  0.076239
 C  C54  1  0.00655843  0.59462792  0.47340957  1  0.076159
 C  C55  1  0.99193494  0.40423768  0.52354885  1  0.076709
 C  C56  1  0.00656118  0.90524581  0.02657770  1  0.076692
 C  C57  1  0.99192554  0.09565605  0.97647578  1  0.076704
 C  C58  1  0.49179886  0.09564247  0.02330223  1  0.076526
 C  C59  1  0.50647312  0.90545536  0.97268883  1  0.076880
 C  C60  1  0.43437028  0.37748250  0.42994560  1  -0.133577
 C  C61  1  0.56392211  0.62161918  0.57379434  1  -0.134178
 C  C62  1  0.06394791  0.62207942  0.42680104  1  -0.133624
 C  C63  1  0.93451069  0.37714853  0.57024864  1  -0.132974
 C  C64  1  0.06395832  0.87778386  0.07315347  1  -0.133057
 C  C65  1  0.93449141  0.12276403  0.92982318  1  -0.133837
 C  C66  1  0.43436961  0.12238560  0.07006092  1  -0.134051
 C  C67  1  0.56389727  0.87826970  0.92615660  1  -0.134078
 H  H68  1  0.47403306  0.89329236  0.56806354  1  0.103817
 H  H69  1  0.52426038  0.10498897  0.43643730  1  0.103554
 H  H70  1  0.02451121  0.10506267  0.56310348  1  0.103560
 H  H71  1  0.97403023  0.89356330  0.43350248  1  0.103390
 H  H72  1  0.02449680  0.39484294  0.93692124  1  0.103694
 H  H73  1  0.97403977  0.60629550  0.06647462  1  0.103467
 H  H74  1  0.47399827  0.60660846  0.93188329  1  0.103831
 H  H75  1  0.52425862  0.39486328  0.06357832  1  0.103394
 H  H76  1  0.57592210  0.76540191  0.61193262  1  0.117846
 H  H77  1  0.42256265  0.23399864  0.39123984  1  0.114788
 H  H78  1  0.92274684  0.23347931  0.60855671  1  0.114370
 H  H79  1  0.07588672  0.76599975  0.38898204  1  0.117712
 H  H80  1  0.92271669  0.26644851  0.89154333  1  0.114735
 H  H81  1  0.07590558  0.73385944  0.11095481  1  0.117488
 H  H82  1  0.57589385  0.73449945  0.88799819  1  0.117838
 H  H83  1  0.42257209  0.26585294  0.10877928  1  0.114715
 H  H84  1  0.62339175  0.15730228  0.52691671  1  0.122140
 H  H85  1  0.37496670  0.84113115  0.47886510  1  0.109966
 H  H86  1  0.87499920  0.84080176  0.52263625  1  0.110789
 H  H87  1  0.12353973  0.15778971  0.47243096  1  0.122233
 H  H88  1  0.87498746  0.65909101  0.97741435  1  0.111233
 H  H89  1  0.12354165  0.34209877  0.02754448  1  0.122018
 H  H90  1  0.62338068  0.34257251  0.97307442  1  0.121936
 H  H91  1  0.37494399  0.65876773  0.02110095  1  0.110245
 H  H92  1  0.27105651  0.50674766  0.11010276  1  0.432373
 H  H93  1  0.27103001  0.99317254  0.38990541  1  0.432375
 H  H94  1  0.77026033  0.50720299  0.89055735  1  0.432037
 H  H95  1  0.77033390  0.99276401  0.60953874  1  0.432311
 Al  Al96  1  0.24474989  0.74996229  0.24998826  1  1.650003
 Al  Al97  1  0.75312942  0.24998739  0.75003031  1  1.649131
 Al  Al98  1  0.25313387  0.24996866  0.24999164  1  1.649661
 Al  Al99  1  0.74475695  0.74998298  0.75000851  1  1.652357
