# generated using pymatgen
data_mil-53-lp
_symmetry_space_group_name_H-M   'P 1'
_cell_length_a   6.66712024
_cell_length_b   16.18439804
_cell_length_c   13.62660513
_cell_angle_alpha   89.61419705
_cell_angle_beta   89.18412405
_cell_angle_gamma   89.37710446
_symmetry_Int_Tables_number   1
_chemical_formula_structural   Al4 H16 C36 O20 F12
_chemical_formula_sum   'O20 C36 H16 Al4 F12'
_cell_volume   1470.08826462
_cell_formula_units_Z   6
loop_
 _symmetry_equiv_pos_site_id
 _symmetry_equiv_pos_as_xyz
  1  'x, y, z'
loop_
 _atom_site_type_symbol
 _atom_site_label
 _atom_site_symmetry_multiplicity
 _atom_site_fract_x
 _atom_site_fract_y
 _atom_site_fract_z
 _atom_site_occupancy
 _atom_site_charge
 O  O0  1  0.67496243  0.67374229  0.83641098  1  -0.601132
 O  O1  1  0.18110664  0.15966953  0.31764953  1  -0.599003
 O  O2  1  0.32738102  0.85039663  0.79681506  1  -0.575096
 O  O3  1  0.83439349  0.33707786  0.31747531  1  -0.577039
 O  O4  1  0.34557573  0.16721959  0.13162171  1  -0.587056
 O  O5  1  0.84091611  0.65272166  0.65339604  1  -0.591056
 O  O6  1  0.67765011  0.34078718  0.14576537  1  -0.575695
 O  O7  1  0.17077606  0.82236562  0.62789370  1  -0.578586
 O  O8  1  0.33781246  0.33667547  0.14500761  1  -0.582304
 O  O9  1  0.83094395  0.82129413  0.62773655  1  -0.581355
 O  O10  1  0.68549774  0.16997846  0.13236984  1  -0.605752
 O  O11  1  0.18099153  0.65281826  0.65697778  1  -0.603246
 O  O12  1  0.66560755  0.83890541  0.80486990  1  -0.581911
 O  O13  1  0.17328738  0.32681336  0.32388068  1  -0.578107
 O  O14  1  0.33516035  0.68504423  0.84350231  1  -0.593186
 O  O15  1  0.84088897  0.16843864  0.32466518  1  -0.591821
 O  O16  1  0.50409259  0.73627521  0.67166256  1  -0.982922
 O  O17  1  0.01068351  0.24778533  0.16862260  1  -0.986649
 O  O18  1  0.50843534  0.24456439  0.28815477  1  -0.991422
 O  O19  1  0.00158001  0.75397834  0.78993388  1  -0.991981
 C  C20  1  0.34066282  0.53444324  0.94553756  1  -0.082773
 C  C21  1  0.84807331  0.01371306  0.41832584  1  -0.084759
 C  C22  1  0.66485794  0.94766286  0.95908727  1  -0.095107
 C  C23  1  0.16297965  0.42736060  0.49041101  1  -0.098031
 C  C24  1  0.67348640  0.00910806  0.02982742  1  -0.116442
 C  C25  1  0.16716782  0.48828284  0.56214574  1  -0.113502
 C  C26  1  0.33856364  0.46411575  0.00449559  1  -0.073001
 C  C27  1  0.84213391  0.94320478  0.47698083  1  -0.068529
 C  C28  1  0.65195289  0.50600047  0.07595292  1  -0.095892
 C  C29  1  0.15317437  0.98397424  0.55143741  1  -0.098261
 C  C30  1  0.36793611  0.06900059  0.96482483  1  -0.082194
 C  C31  1  0.86328644  0.54787261  0.49483016  1  -0.080254
 C  C32  1  0.35589902  0.00575971  0.89658237  1  -0.070194
 C  C33  1  0.85517653  0.48517860  0.42591688  1  -0.073931
 C  C34  1  0.64949019  0.57850910  0.02011500  1  -0.115116
 C  C35  1  0.15421920  0.05670522  0.49609398  1  -0.114585
 C  C36  1  0.49801643  0.59072056  0.94988749  1  -0.026222
 C  C37  1  0.50313521  0.65614004  0.87177976  1  0.642712
 C  C38  1  0.00525461  0.07000132  0.42484197  1  -0.025858
 C  C39  1  0.00956931  0.13889713  0.35079205  1  0.636762
 C  C40  1  0.50596806  0.94499181  0.89343250  1  -0.022619
 C  C41  1  0.49836370  0.87323528  0.82565376  1  0.640303
 C  C42  1  0.00778305  0.42551062  0.42261058  1  -0.021332
 C  C43  1  0.00483541  0.35813615  0.34873415  1  0.641343
 C  C44  1  0.52371306  0.07162080  0.03277132  1  -0.030169
 C  C45  1  0.51877868  0.14120613  0.10519561  1  0.644984
 C  C46  1  0.01761289  0.55090541  0.56345638  1  -0.031527
 C  C47  1  0.01374280  0.62366934  0.63121286  1  0.644584
 C  C48  1  0.49921231  0.44803456  0.06669064  1  -0.025974
 C  C49  1  0.50562269  0.36939523  0.12405852  1  0.642431
 C  C50  1  0.99926041  0.92681076  0.54111743  1  -0.025433
 C  C51  1  0.00034561  0.85099488  0.60350610  1  0.645641
 C  C52  1  0.32736112  0.48001686  0.63921623  1  0.684125
 C  C53  1  0.80196958  0.64397819  0.04279371  1  0.680130
 C  C54  1  0.30769267  0.12087170  0.52167098  1  0.684452
 C  C55  1  0.83766669  0.00064376  0.10476104  1  0.684920
 H  H56  1  0.73232016  0.48202167  0.37424657  1  0.121623
 H  H57  1  0.23069492  0.00277753  0.84622965  1  0.119227
 H  H58  1  0.74806124  0.59591057  0.49721874  1  0.115714
 H  H59  1  0.25302535  0.11716940  0.96790787  1  0.116177
 H  H60  1  0.26879591  0.97171123  0.60536685  1  0.124300
 H  H61  1  0.77043387  0.49429376  0.12859342  1  0.123710
 H  H62  1  0.71819488  0.90008951  0.47287196  1  0.122904
 H  H63  1  0.21596444  0.42029420  0.00148569  1  0.125701
 H  H64  1  0.27754276  0.37900637  0.48800585  1  0.127876
 H  H65  1  0.77829110  0.89893719  0.95614344  1  0.127550
 H  H66  1  0.73066779  0.02638727  0.36573969  1  0.121125
 H  H67  1  0.22188867  0.54642305  0.89345041  1  0.121764
 H  H68  1  0.50998497  0.21223454  0.34848250  1  0.421558
 H  H69  1  0.00150093  0.73062115  0.85580171  1  0.425222
 H  H70  1  0.50119873  0.69028321  0.62632134  1  0.424712
 H  H71  1  0.00935695  0.21089139  0.11274820  1  0.426915
 Al  Al72  1  0.75332171  0.74670310  0.72984754  1  1.644936
 Al  Al73  1  0.25349851  0.75081103  0.73104912  1  1.638627
 Al  Al74  1  0.25973625  0.24773271  0.22870498  1  1.642791
 Al  Al75  1  0.75947367  0.25186003  0.22931733  1  1.643072
 F  F76  1  0.48187381  0.53419010  0.62661615  1  -0.213970
 F  F77  1  0.96767633  0.64305560  0.98180195  1  -0.212698
 F  F78  1  0.47462848  0.12016856  0.46140523  1  -0.212717
 F  F79  1  0.98786649  0.05677139  0.09259322  1  -0.212165
 F  F80  1  0.41376646  0.40303124  0.63897844  1  -0.220090
 F  F81  1  0.87412219  0.63432152  0.13570549  1  -0.222300
 F  F82  1  0.37794053  0.10875889  0.61458714  1  -0.223827
 F  F83  1  0.92929078  0.92472091  0.10102332  1  -0.219700
 F  F84  1  0.25051614  0.49128056  0.73180201  1  -0.213627
 F  F85  1  0.72141318  0.72193294  0.03785407  1  -0.211120
 F  F86  1  0.23018438  0.19932868  0.51905325  1  -0.208879
 F  F87  1  0.76370084  0.00866675  0.19835768  1  -0.209772
